REMARK  Name = ../refined-set-2016/2xhm/2xhm_pocket.pdb
REMARK  227 active torsions:
REMARK  status: ('A' for Active; 'I' for Inactive)
REMARK    1  A    between atoms: _1  and  _3
REMARK    2  A    between atoms: _3  and  _4
REMARK    3  A    between atoms: _3  and  _6
REMARK    4  A    between atoms: _6  and  _7
REMARK    5  A    between atoms: _10  and  _12
REMARK    6  A    between atoms: _12  and  _13
REMARK    7  A    between atoms: _12  and  _15
REMARK    8  A    between atoms: _15  and  _16
REMARK    9  A    between atoms: _16  and  _17
REMARK   10  A    between atoms: _20  and  _22
REMARK   11  A    between atoms: _22  and  _23
REMARK   12  A    between atoms: _22  and  _25
REMARK   13  A    between atoms: _25  and  _26
REMARK   14  A    between atoms: _29  and  _31
REMARK   15  A    between atoms: _31  and  _32
REMARK   16  A    between atoms: _31  and  _34
REMARK   17  A    between atoms: _34  and  _35
REMARK   18  A    between atoms: _35  and  _36
REMARK   19  A    between atoms: _39  and  _41
REMARK   20  A    between atoms: _41  and  _42
REMARK   21  A    between atoms: _45  and  _47
REMARK   22  A    between atoms: _47  and  _48
REMARK   23  A    between atoms: _51  and  _53
REMARK   24  A    between atoms: _53  and  _54
REMARK   25  A    between atoms: _53  and  _56
REMARK   26  A    between atoms: _56  and  _57
REMARK   27  A    between atoms: _67  and  _69
REMARK   28  A    between atoms: _69  and  _70
REMARK   29  A    between atoms: _69  and  _72
REMARK   30  A    between atoms: _72  and  _73
REMARK   31  A    between atoms: _73  and  _74
REMARK   32  A    between atoms: _74  and  _75
REMARK   33  A    between atoms: _75  and  _76
REMARK   34  A    between atoms: _80  and  _82
REMARK   35  A    between atoms: _82  and  _83
REMARK   36  A    between atoms: _82  and  _85
REMARK   37  A    between atoms: _85  and  _86
REMARK   38  A    between atoms: _88  and  _90
REMARK   39  A    between atoms: _90  and  _91
REMARK   40  A    between atoms: _90  and  _93
REMARK   41  A    between atoms: _93  and  _94
REMARK   42  A    between atoms: _94  and  _95
REMARK   43  A    between atoms: _98  and  _100
REMARK   44  A    between atoms: _100  and  _101
REMARK   45  A    between atoms: _100  and  _103
REMARK   46  A    between atoms: _103  and  _104
REMARK   47  A    between atoms: _104  and  _105
REMARK   48  A    between atoms: _110  and  _112
REMARK   49  A    between atoms: _112  and  _113
REMARK   50  A    between atoms: _112  and  _115
REMARK   51  A    between atoms: _118  and  _120
REMARK   52  A    between atoms: _120  and  _121
REMARK   53  A    between atoms: _120  and  _123
REMARK   54  A    between atoms: _123  and  _124
REMARK   55  A    between atoms: _129  and  _131
REMARK   56  A    between atoms: _131  and  _132
REMARK   57  A    between atoms: _135  and  _137
REMARK   58  A    between atoms: _137  and  _138
REMARK   59  A    between atoms: _137  and  _140
REMARK   60  A    between atoms: _140  and  _141
REMARK   61  A    between atoms: _143  and  _145
REMARK   62  A    between atoms: _145  and  _146
REMARK   63  A    between atoms: _149  and  _151
REMARK   64  A    between atoms: _151  and  _152
REMARK   65  A    between atoms: _151  and  _154
REMARK   66  A    between atoms: _154  and  _155
REMARK   67  A    between atoms: _165  and  _167
REMARK   68  A    between atoms: _167  and  _168
REMARK   69  A    between atoms: _167  and  _170
REMARK   70  A    between atoms: _170  and  _171
REMARK   71  A    between atoms: _174  and  _176
REMARK   72  A    between atoms: _176  and  _177
REMARK   73  A    between atoms: _176  and  _179
REMARK   74  A    between atoms: _179  and  _180
REMARK   75  A    between atoms: _186  and  _188
REMARK   76  A    between atoms: _188  and  _189
REMARK   77  A    between atoms: _188  and  _191
REMARK   78  A    between atoms: _191  and  _192
REMARK   79  A    between atoms: _197  and  _198
REMARK   80  A    between atoms: _200  and  _202
REMARK   81  A    between atoms: _202  and  _203
REMARK   82  A    between atoms: _202  and  _205
REMARK   83  A    between atoms: _205  and  _206
REMARK   84  A    between atoms: _209  and  _211
REMARK   85  A    between atoms: _211  and  _212
REMARK   86  A    between atoms: _211  and  _214
REMARK   87  A    between atoms: _217  and  _219
REMARK   88  A    between atoms: _219  and  _220
REMARK   89  A    between atoms: _219  and  _222
REMARK   90  A    between atoms: _222  and  _223
REMARK   91  A    between atoms: _223  and  _224
REMARK   92  A    between atoms: _224  and  _225
REMARK   93  A    between atoms: _234  and  _236
REMARK   94  A    between atoms: _236  and  _237
REMARK   95  A    between atoms: _236  and  _239
REMARK   96  A    between atoms: _239  and  _240
REMARK   97  A    between atoms: _243  and  _245
REMARK   98  A    between atoms: _245  and  _246
REMARK   99  A    between atoms: _245  and  _248
REMARK  100  A    between atoms: _248  and  _249
REMARK  101  A    between atoms: _249  and  _250
REMARK  102  A    between atoms: _250  and  _251
REMARK  103  A    between atoms: _251  and  _252
REMARK  104  A    between atoms: _256  and  _258
REMARK  105  A    between atoms: _258  and  _259
REMARK  106  A    between atoms: _258  and  _261
REMARK  107  A    between atoms: _261  and  _262
REMARK  108  A    between atoms: _262  and  _263
REMARK  109  A    between atoms: _268  and  _270
REMARK  110  A    between atoms: _270  and  _271
REMARK  111  A    between atoms: _270  and  _273
REMARK  112  A    between atoms: _273  and  _274
REMARK  113  A    between atoms: _277  and  _279
REMARK  114  A    between atoms: _290  and  _293
REMARK  115  A    between atoms: _293  and  _294
REMARK  116  A    between atoms: _294  and  _295
REMARK  117  A    between atoms: _300  and  _303
REMARK  118  A    between atoms: _303  and  _304
REMARK  119  A    between atoms: _314  and  _315
REMARK  120  A    between atoms: _323  and  _325
REMARK  121  A    between atoms: _325  and  _326
REMARK  122  A    between atoms: _325  and  _328
REMARK  123  A    between atoms: _328  and  _329
REMARK  124  A    between atoms: _332  and  _334
REMARK  125  A    between atoms: _334  and  _335
REMARK  126  A    between atoms: _334  and  _337
REMARK  127  A    between atoms: _337  and  _338
REMARK  128  A    between atoms: _343  and  _344
REMARK  129  A    between atoms: _346  and  _348
REMARK  130  A    between atoms: _348  and  _349
REMARK  131  A    between atoms: _348  and  _351
REMARK  132  A    between atoms: _351  and  _352
REMARK  133  A    between atoms: _358  and  _360
REMARK  134  A    between atoms: _360  and  _361
REMARK  135  A    between atoms: _360  and  _363
REMARK  136  A    between atoms: _363  and  _364
REMARK  137  A    between atoms: _369  and  _370
REMARK  138  A    between atoms: _372  and  _374
REMARK  139  A    between atoms: _374  and  _375
REMARK  140  A    between atoms: _374  and  _377
REMARK  141  A    between atoms: _377  and  _378
REMARK  142  A    between atoms: _384  and  _386
REMARK  143  A    between atoms: _386  and  _387
REMARK  144  A    between atoms: _386  and  _389
REMARK  145  A    between atoms: _389  and  _390
REMARK  146  A    between atoms: _390  and  _391
REMARK  147  A    between atoms: _391  and  _392
REMARK  148  A    between atoms: _401  and  _403
REMARK  149  A    between atoms: _403  and  _404
REMARK  150  A    between atoms: _403  and  _406
REMARK  151  A    between atoms: _406  and  _407
REMARK  152  A    between atoms: _410  and  _412
REMARK  153  A    between atoms: _412  and  _413
REMARK  154  A    between atoms: _415  and  _417
REMARK  155  A    between atoms: _417  and  _418
REMARK  156  A    between atoms: _421  and  _423
REMARK  157  A    between atoms: _423  and  _424
REMARK  158  A    between atoms: _423  and  _426
REMARK  159  A    between atoms: _426  and  _427
REMARK  160  A    between atoms: _433  and  _434
REMARK  161  A    between atoms: _439  and  _441
REMARK  162  A    between atoms: _441  and  _442
REMARK  163  A    between atoms: _444  and  _446
REMARK  164  A    between atoms: _446  and  _447
REMARK  165  A    between atoms: _446  and  _449
REMARK  166  A    between atoms: _449  and  _450
REMARK  167  A    between atoms: _456  and  _458
REMARK  168  A    between atoms: _458  and  _459
REMARK  169  A    between atoms: _458  and  _461
REMARK  170  A    between atoms: _461  and  _462
REMARK  171  A    between atoms: _467  and  _469
REMARK  172  A    between atoms: _469  and  _470
REMARK  173  A    between atoms: _469  and  _472
REMARK  174  A    between atoms: _472  and  _473
REMARK  175  A    between atoms: _473  and  _474
REMARK  176  A    between atoms: _474  and  _475
REMARK  177  A    between atoms: _475  and  ZN_601
REMARK  178  A    between atoms: _477  and  _479
REMARK  179  A    between atoms: _479  and  _480
REMARK  180  A    between atoms: _479  and  _482
REMARK  181  A    between atoms: _482  and  _483
REMARK  182  A    between atoms: _483  and  _484
REMARK  183  A    between atoms: _484  and  _485
REMARK  184  A    between atoms: _485  and  _486
REMARK  185  A    between atoms: _490  and  _492
REMARK  186  A    between atoms: _492  and  _493
REMARK  187  A    between atoms: _492  and  _495
REMARK  188  A    between atoms: _495  and  _496
REMARK  189  A    between atoms: _501  and  _502
REMARK  190  A    between atoms: _504  and  _506
REMARK  191  A    between atoms: _506  and  _507
REMARK  192  A    between atoms: _506  and  _509
REMARK  193  A    between atoms: _509  and  _510
REMARK  194  A    between atoms: _515  and  _517
REMARK  195  A    between atoms: _517  and  _518
REMARK  196  A    between atoms: _521  and  _523
REMARK  197  A    between atoms: _523  and  _524
REMARK  198  A    between atoms: _523  and  _526
REMARK  199  A    between atoms: _526  and  _527
REMARK  200  A    between atoms: _530  and  _532
REMARK  201  A    between atoms: _532  and  _533
REMARK  202  A    between atoms: _532  and  _535
REMARK  203  A    between atoms: _538  and  _540
REMARK  204  A    between atoms: _540  and  _541
REMARK  205  A    between atoms: _540  and  _543
REMARK  206  A    between atoms: _543  and  _544
REMARK  207  A    between atoms: _544  and  _545
REMARK  208  A    between atoms: _548  and  _550
REMARK  209  A    between atoms: _550  and  _551
REMARK  210  A    between atoms: _550  and  _553
REMARK  211  A    between atoms: _553  and  _554
REMARK  212  A    between atoms: _559  and  _560
REMARK  213  A    between atoms: _562  and  _564
REMARK  214  A    between atoms: _564  and  _565
REMARK  215  A    between atoms: _564  and  _567
REMARK  216  A    between atoms: _567  and  _568
REMARK  217  A    between atoms: _568  and  _569
REMARK  218  A    between atoms: _569  and  _570
REMARK  219  A    between atoms: _579  and  _581
REMARK  220  A    between atoms: _581  and  _582
REMARK  221  A    between atoms: _581  and  _584
REMARK  222  A    between atoms: _584  and  _585
REMARK  223  A    between atoms: _590  and  _591
REMARK  224  A    between atoms: _593  and  _595
REMARK  225  A    between atoms: _595  and  _596
REMARK  226  A    between atoms: _595  and  _598
REMARK  227  A    between atoms: _598  and  _599
REMARK                            x       y       z     vdW  Elec       q    Type
REMARK                         _______ _______ _______ _____ _____    ______ ____
ROOT
ATOM      1  CA  THR A   1       4.342  25.107 -14.767  0.00  0.00    +0.160 C 
ENDROOT
BRANCH   1   2
ATOM      2  N   THR A   1       5.711  25.126 -15.295  0.00  0.00    -0.237 NA
ATOM      3  H   THR A   1       5.866  24.945 -16.307  0.00  0.00    +0.142 HD
ENDBRANCH   1   2
BRANCH   1   4
ATOM      4  C   THR A   1       4.118  23.876 -13.885  0.00  0.00    +0.227 C 
ATOM      5  O   THR A   1       3.440  23.960 -12.857  0.00  0.00    -0.287 OA
ENDBRANCH   1   4
BRANCH   1   6
ATOM      6  CB  THR A   1       3.285  25.204 -15.891  0.00  0.00    +0.134 C 
ATOM      7  CG2 THR A   1       1.874  25.352 -15.315  0.00  0.00    +0.034 C 
BRANCH   6   8
ATOM      8  OG1 THR A   1       3.571  26.349 -16.705  0.00  0.00    -0.383 OA
ATOM      9  HG1 THR A   1       4.473  26.253 -17.102  0.00  0.00    +0.210 HD
ENDBRANCH   6   8
ENDBRANCH   1   6
TORSDOF 4
REMARK  Name = ../refined-set-2016/2xhm/2xhm_pocket.pdb
REMARK  227 active torsions:
REMARK  status: ('A' for Active; 'I' for Inactive)
REMARK    1  A    between atoms: _1  and  _3
REMARK    2  A    between atoms: _3  and  _4
REMARK    3  A    between atoms: _3  and  _6
REMARK    4  A    between atoms: _6  and  _7
REMARK    5  A    between atoms: _10  and  _12
REMARK    6  A    between atoms: _12  and  _13
REMARK    7  A    between atoms: _12  and  _15
REMARK    8  A    between atoms: _15  and  _16
REMARK    9  A    between atoms: _16  and  _17
REMARK   10  A    between atoms: _20  and  _22
REMARK   11  A    between atoms: _22  and  _23
REMARK   12  A    between atoms: _22  and  _25
REMARK   13  A    between atoms: _25  and  _26
REMARK   14  A    between atoms: _29  and  _31
REMARK   15  A    between atoms: _31  and  _32
REMARK   16  A    between atoms: _31  and  _34
REMARK   17  A    between atoms: _34  and  _35
REMARK   18  A    between atoms: _35  and  _36
REMARK   19  A    between atoms: _39  and  _41
REMARK   20  A    between atoms: _41  and  _42
REMARK   21  A    between atoms: _45  and  _47
REMARK   22  A    between atoms: _47  and  _48
REMARK   23  A    between atoms: _51  and  _53
REMARK   24  A    between atoms: _53  and  _54
REMARK   25  A    between atoms: _53  and  _56
REMARK   26  A    between atoms: _56  and  _57
REMARK   27  A    between atoms: _67  and  _69
REMARK   28  A    between atoms: _69  and  _70
REMARK   29  A    between atoms: _69  and  _72
REMARK   30  A    between atoms: _72  and  _73
REMARK   31  A    between atoms: _73  and  _74
REMARK   32  A    between atoms: _74  and  _75
REMARK   33  A    between atoms: _75  and  _76
REMARK   34  A    between atoms: _80  and  _82
REMARK   35  A    between atoms: _82  and  _83
REMARK   36  A    between atoms: _82  and  _85
REMARK   37  A    between atoms: _85  and  _86
REMARK   38  A    between atoms: _88  and  _90
REMARK   39  A    between atoms: _90  and  _91
REMARK   40  A    between atoms: _90  and  _93
REMARK   41  A    between atoms: _93  and  _94
REMARK   42  A    between atoms: _94  and  _95
REMARK   43  A    between atoms: _98  and  _100
REMARK   44  A    between atoms: _100  and  _101
REMARK   45  A    between atoms: _100  and  _103
REMARK   46  A    between atoms: _103  and  _104
REMARK   47  A    between atoms: _104  and  _105
REMARK   48  A    between atoms: _110  and  _112
REMARK   49  A    between atoms: _112  and  _113
REMARK   50  A    between atoms: _112  and  _115
REMARK   51  A    between atoms: _118  and  _120
REMARK   52  A    between atoms: _120  and  _121
REMARK   53  A    between atoms: _120  and  _123
REMARK   54  A    between atoms: _123  and  _124
REMARK   55  A    between atoms: _129  and  _131
REMARK   56  A    between atoms: _131  and  _132
REMARK   57  A    between atoms: _135  and  _137
REMARK   58  A    between atoms: _137  and  _138
REMARK   59  A    between atoms: _137  and  _140
REMARK   60  A    between atoms: _140  and  _141
REMARK   61  A    between atoms: _143  and  _145
REMARK   62  A    between atoms: _145  and  _146
REMARK   63  A    between atoms: _149  and  _151
REMARK   64  A    between atoms: _151  and  _152
REMARK   65  A    between atoms: _151  and  _154
REMARK   66  A    between atoms: _154  and  _155
REMARK   67  A    between atoms: _165  and  _167
REMARK   68  A    between atoms: _167  and  _168
REMARK   69  A    between atoms: _167  and  _170
REMARK   70  A    between atoms: _170  and  _171
REMARK   71  A    between atoms: _174  and  _176
REMARK   72  A    between atoms: _176  and  _177
REMARK   73  A    between atoms: _176  and  _179
REMARK   74  A    between atoms: _179  and  _180
REMARK   75  A    between atoms: _186  and  _188
REMARK   76  A    between atoms: _188  and  _189
REMARK   77  A    between atoms: _188  and  _191
REMARK   78  A    between atoms: _191  and  _192
REMARK   79  A    between atoms: _197  and  _198
REMARK   80  A    between atoms: _200  and  _202
REMARK   81  A    between atoms: _202  and  _203
REMARK   82  A    between atoms: _202  and  _205
REMARK   83  A    between atoms: _205  and  _206
REMARK   84  A    between atoms: _209  and  _211
REMARK   85  A    between atoms: _211  and  _212
REMARK   86  A    between atoms: _211  and  _214
REMARK   87  A    between atoms: _217  and  _219
REMARK   88  A    between atoms: _219  and  _220
REMARK   89  A    between atoms: _219  and  _222
REMARK   90  A    between atoms: _222  and  _223
REMARK   91  A    between atoms: _223  and  _224
REMARK   92  A    between atoms: _224  and  _225
REMARK   93  A    between atoms: _234  and  _236
REMARK   94  A    between atoms: _236  and  _237
REMARK   95  A    between atoms: _236  and  _239
REMARK   96  A    between atoms: _239  and  _240
REMARK   97  A    between atoms: _243  and  _245
REMARK   98  A    between atoms: _245  and  _246
REMARK   99  A    between atoms: _245  and  _248
REMARK  100  A    between atoms: _248  and  _249
REMARK  101  A    between atoms: _249  and  _250
REMARK  102  A    between atoms: _250  and  _251
REMARK  103  A    between atoms: _251  and  _252
REMARK  104  A    between atoms: _256  and  _258
REMARK  105  A    between atoms: _258  and  _259
REMARK  106  A    between atoms: _258  and  _261
REMARK  107  A    between atoms: _261  and  _262
REMARK  108  A    between atoms: _262  and  _263
REMARK  109  A    between atoms: _268  and  _270
REMARK  110  A    between atoms: _270  and  _271
REMARK  111  A    between atoms: _270  and  _273
REMARK  112  A    between atoms: _273  and  _274
REMARK  113  A    between atoms: _277  and  _279
REMARK  114  A    between atoms: _290  and  _293
REMARK  115  A    between atoms: _293  and  _294
REMARK  116  A    between atoms: _294  and  _295
REMARK  117  A    between atoms: _300  and  _303
REMARK  118  A    between atoms: _303  and  _304
REMARK  119  A    between atoms: _314  and  _315
REMARK  120  A    between atoms: _323  and  _325
REMARK  121  A    between atoms: _325  and  _326
REMARK  122  A    between atoms: _325  and  _328
REMARK  123  A    between atoms: _328  and  _329
REMARK  124  A    between atoms: _332  and  _334
REMARK  125  A    between atoms: _334  and  _335
REMARK  126  A    between atoms: _334  and  _337
REMARK  127  A    between atoms: _337  and  _338
REMARK  128  A    between atoms: _343  and  _344
REMARK  129  A    between atoms: _346  and  _348
REMARK  130  A    between atoms: _348  and  _349
REMARK  131  A    between atoms: _348  and  _351
REMARK  132  A    between atoms: _351  and  _352
REMARK  133  A    between atoms: _358  and  _360
REMARK  134  A    between atoms: _360  and  _361
REMARK  135  A    between atoms: _360  and  _363
REMARK  136  A    between atoms: _363  and  _364
REMARK  137  A    between atoms: _369  and  _370
REMARK  138  A    between atoms: _372  and  _374
REMARK  139  A    between atoms: _374  and  _375
REMARK  140  A    between atoms: _374  and  _377
REMARK  141  A    between atoms: _377  and  _378
REMARK  142  A    between atoms: _384  and  _386
REMARK  143  A    between atoms: _386  and  _387
REMARK  144  A    between atoms: _386  and  _389
REMARK  145  A    between atoms: _389  and  _390
REMARK  146  A    between atoms: _390  and  _391
REMARK  147  A    between atoms: _391  and  _392
REMARK  148  A    between atoms: _401  and  _403
REMARK  149  A    between atoms: _403  and  _404
REMARK  150  A    between atoms: _403  and  _406
REMARK  151  A    between atoms: _406  and  _407
REMARK  152  A    between atoms: _410  and  _412
REMARK  153  A    between atoms: _412  and  _413
REMARK  154  A    between atoms: _415  and  _417
REMARK  155  A    between atoms: _417  and  _418
REMARK  156  A    between atoms: _421  and  _423
REMARK  157  A    between atoms: _423  and  _424
REMARK  158  A    between atoms: _423  and  _426
REMARK  159  A    between atoms: _426  and  _427
REMARK  160  A    between atoms: _433  and  _434
REMARK  161  A    between atoms: _439  and  _441
REMARK  162  A    between atoms: _441  and  _442
REMARK  163  A    between atoms: _444  and  _446
REMARK  164  A    between atoms: _446  and  _447
REMARK  165  A    between atoms: _446  and  _449
REMARK  166  A    between atoms: _449  and  _450
REMARK  167  A    between atoms: _456  and  _458
REMARK  168  A    between atoms: _458  and  _459
REMARK  169  A    between atoms: _458  and  _461
REMARK  170  A    between atoms: _461  and  _462
REMARK  171  A    between atoms: _467  and  _469
REMARK  172  A    between atoms: _469  and  _470
REMARK  173  A    between atoms: _469  and  _472
REMARK  174  A    between atoms: _472  and  _473
REMARK  175  A    between atoms: _473  and  _474
REMARK  176  A    between atoms: _474  and  _475
REMARK  177  A    between atoms: _475  and  ZN_601
REMARK  178  A    between atoms: _477  and  _479
REMARK  179  A    between atoms: _479  and  _480
REMARK  180  A    between atoms: _479  and  _482
REMARK  181  A    between atoms: _482  and  _483
REMARK  182  A    between atoms: _483  and  _484
REMARK  183  A    between atoms: _484  and  _485
REMARK  184  A    between atoms: _485  and  _486
REMARK  185  A    between atoms: _490  and  _492
REMARK  186  A    between atoms: _492  and  _493
REMARK  187  A    between atoms: _492  and  _495
REMARK  188  A    between atoms: _495  and  _496
REMARK  189  A    between atoms: _501  and  _502
REMARK  190  A    between atoms: _504  and  _506
REMARK  191  A    between atoms: _506  and  _507
REMARK  192  A    between atoms: _506  and  _509
REMARK  193  A    between atoms: _509  and  _510
REMARK  194  A    between atoms: _515  and  _517
REMARK  195  A    between atoms: _517  and  _518
REMARK  196  A    between atoms: _521  and  _523
REMARK  197  A    between atoms: _523  and  _524
REMARK  198  A    between atoms: _523  and  _526
REMARK  199  A    between atoms: _526  and  _527
REMARK  200  A    between atoms: _530  and  _532
REMARK  201  A    between atoms: _532  and  _533
REMARK  202  A    between atoms: _532  and  _535
REMARK  203  A    between atoms: _538  and  _540
REMARK  204  A    between atoms: _540  and  _541
REMARK  205  A    between atoms: _540  and  _543
REMARK  206  A    between atoms: _543  and  _544
REMARK  207  A    between atoms: _544  and  _545
REMARK  208  A    between atoms: _548  and  _550
REMARK  209  A    between atoms: _550  and  _551
REMARK  210  A    between atoms: _550  and  _553
REMARK  211  A    between atoms: _553  and  _554
REMARK  212  A    between atoms: _559  and  _560
REMARK  213  A    between atoms: _562  and  _564
REMARK  214  A    between atoms: _564  and  _565
REMARK  215  A    between atoms: _564  and  _567
REMARK  216  A    between atoms: _567  and  _568
REMARK  217  A    between atoms: _568  and  _569
REMARK  218  A    between atoms: _569  and  _570
REMARK  219  A    between atoms: _579  and  _581
REMARK  220  A    between atoms: _581  and  _582
REMARK  221  A    between atoms: _581  and  _584
REMARK  222  A    between atoms: _584  and  _585
REMARK  223  A    between atoms: _590  and  _591
REMARK  224  A    between atoms: _593  and  _595
REMARK  225  A    between atoms: _595  and  _596
REMARK  226  A    between atoms: _595  and  _598
REMARK  227  A    between atoms: _598  and  _599
REMARK                            x       y       z     vdW  Elec       q    Type
REMARK                         _______ _______ _______ _____ _____    ______ ____
ROOT
ATOM      1  C   GLU A   3       3.051  21.580  -6.215  0.00  0.00    +0.241 C 
ATOM      2  O   GLU A   3       2.493  21.054  -5.252  0.00  0.00    -0.273 OA
ATOM      3  N   ALA A   4       3.560  22.810  -6.177  0.00  0.00    -0.297 N 
ATOM      4  H   ALA A   4       4.040  23.184  -7.021  0.00  0.00    +0.150 HD
ENDROOT
BRANCH   3   5
ATOM      5  CA  ALA A   4       3.465  23.651  -4.985  0.00  0.00    +0.149 C 
ATOM      6  CB  ALA A   4       4.367  24.867  -5.118  0.00  0.00    +0.031 C 
BRANCH   5   7
ATOM      7  C   ALA A   4       2.025  24.078  -4.677  0.00  0.00    +0.241 C 
ATOM      8  O   ALA A   4       1.651  24.225  -3.503  0.00  0.00    -0.273 OA
ATOM      9  N   ALA A   5       1.232  24.287  -5.729  0.00  0.00    -0.297 N 
ATOM     10  H   ALA A   5       1.630  24.197  -6.686  0.00  0.00    +0.150 HD
BRANCH   9  11
ATOM     11  CA  ALA A   5      -0.184  24.640  -5.578  0.00  0.00    +0.149 C 
ATOM     12  CB  ALA A   5      -0.764  25.146  -6.900  0.00  0.00    +0.031 C 
BRANCH  11  13
ATOM     13  C   ALA A   5      -0.980  23.443  -5.066  0.00  0.00    +0.241 C 
ATOM     14  O   ALA A   5      -1.940  23.603  -4.311  0.00  0.00    -0.273 OA
ATOM     15  N   TRP A   6      -0.564  22.249  -5.482  0.00  0.00    -0.298 N 
ATOM     16  H   TRP A   6       0.233  22.202  -6.148  0.00  0.00    +0.150 HD
BRANCH  15  17
ATOM     17  CA  TRP A   6      -1.182  21.002  -5.040  0.00  0.00    +0.141 C 
BRANCH  17  18
ATOM     18  C   TRP A   6      -0.922  20.769  -3.556  0.00  0.00    +0.227 C 
ATOM     19  O   TRP A   6      -1.845  20.435  -2.815  0.00  0.00    -0.286 OA
ENDBRANCH  17  18
BRANCH  17  20
ATOM     20  CB  TRP A   6      -0.676  19.818  -5.871  0.00  0.00    +0.056 C 
BRANCH  20  21
ATOM     21  CG  TRP A   6      -1.108  18.477  -5.337  0.00  0.00    -0.002 A 
ATOM     22  CD1 TRP A   6      -0.424  17.683  -4.456  0.00  0.00    +0.068 A 
ATOM     23  NE1 TRP A   6      -1.139  16.538  -4.196  0.00  0.00    -0.352 N 
ATOM     24  HE1 TRP A   6      -0.841  15.769  -3.562  0.00  0.00    +0.166 HD
ATOM     25  CE2 TRP A   6      -2.310  16.575  -4.909  0.00  0.00    +0.056 A 
ATOM     26  CZ2 TRP A   6      -3.356  15.646  -4.975  0.00  0.00    +0.017 A 
ATOM     27  CH2 TRP A   6      -4.422  15.948  -5.786  0.00  0.00    +0.001 A 
ATOM     28  CZ3 TRP A   6      -4.467  17.143  -6.528  0.00  0.00    +0.000 A 
ATOM     29  CE3 TRP A   6      -3.428  18.069  -6.460  0.00  0.00    +0.001 A 
ATOM     30  CD2 TRP A   6      -2.325  17.785  -5.640  0.00  0.00    +0.013 A 
ENDBRANCH  20  21
ENDBRANCH  17  20
ENDBRANCH  15  17
ENDBRANCH  11  13
ENDBRANCH   9  11
ENDBRANCH   5   7
ENDBRANCH   3   5
BRANCH   1  31
ATOM     31  CA  GLU A   3       3.166  20.834  -7.544  0.00  0.00    +0.149 C 
BRANCH  31  34
ATOM     32  C   THR A   2       1.609  22.241  -8.789  0.00  0.00    +0.243 C 
ATOM     33  O   THR A   2       0.711  22.050  -7.967  0.00  0.00    -0.273 OA
ATOM     34  N   GLU A   3       2.815  21.684  -8.683  0.00  0.00    -0.297 N 
ATOM     35  H   GLU A   3       3.522  21.857  -9.426  0.00  0.00    +0.150 HD
BRANCH  32  36
ATOM     36  CA  THR A   2       1.377  23.168  -9.990  0.00  0.00    +0.176 C 
BRANCH  36  39
ATOM     37  C   GLU A   1       3.015  24.882  -9.384  0.00  0.00    +0.238 C 
ATOM     38  O   GLU A   1       2.536  25.036  -8.260  0.00  0.00    -0.274 OA
ATOM     39  N   THR A   2       2.540  24.010 -10.270  0.00  0.00    -0.295 N 
ATOM     40  H   THR A   2       3.012  23.924 -11.193  0.00  0.00    +0.150 HD
BRANCH  37  41
ATOM     41  CA  GLU A   1       4.226  25.698  -9.829  0.00  0.00    +0.145 C 
BRANCH  41  42
ATOM     42  N   GLU A   1       5.224  24.830 -10.450  0.00  0.00    -0.238 NA
ATOM     43  H   GLU A   1       5.476  24.981 -11.448  0.00  0.00    +0.142 HD
ENDBRANCH  41  42
BRANCH  41  44
ATOM     44  CB  GLU A   1       3.788  26.817 -10.784  0.00  0.00    +0.038 C 
BRANCH  44  45
ATOM     45  CG  GLU A   1       2.833  27.829 -10.149  0.00  0.00    +0.116 C 
BRANCH  45  46
ATOM     46  CD  GLU A   1       2.151  28.740 -11.163  0.00  0.00    +0.365 C 
ATOM     47  OE2 GLU A   1       2.022  29.948 -10.872  0.00  0.00    -0.246 OA
ATOM     48  OE1 GLU A   1       1.739  28.252 -12.239  0.00  0.00    -0.246 OA
ENDBRANCH  45  46
ENDBRANCH  44  45
ENDBRANCH  41  44
ENDBRANCH  37  41
ENDBRANCH  36  39
BRANCH  36  49
ATOM     49  CB  THR A   2       0.954  22.361 -11.228  0.00  0.00    +0.137 C 
ATOM     50  CG2 THR A   2      -0.366  21.631 -10.979  0.00  0.00    +0.034 C 
BRANCH  49  51
ATOM     51  OG1 THR A   2       0.788  23.255 -12.334  0.00  0.00    -0.382 OA
ATOM     52  HG1 THR A   2       1.644  23.718 -12.514  0.00  0.00    +0.210 HD
ENDBRANCH  49  51
ENDBRANCH  36  49
ENDBRANCH  32  36
ENDBRANCH  31  34
BRANCH  31  53
ATOM     53  CB  GLU A   3       4.563  20.219  -7.712  0.00  0.00    +0.041 C 
BRANCH  53  54
ATOM     54  CG  GLU A   3       4.614  19.028  -8.665  0.00  0.00    +0.116 C 
BRANCH  54  55
ATOM     55  CD  GLU A   3       3.989  17.748  -8.090  0.00  0.00    +0.365 C 
ATOM     56  OE2 GLU A   3       3.541  17.748  -6.919  0.00  0.00    -0.246 OA
ATOM     57  OE1 GLU A   3       3.945  16.734  -8.825  0.00  0.00    -0.246 OA
ENDBRANCH  54  55
ENDBRANCH  53  54
ENDBRANCH  31  53
ENDBRANCH   1  31
TORSDOF 22
REMARK  Name = ../refined-set-2016/2xhm/2xhm_pocket.pdb
REMARK  227 active torsions:
REMARK  status: ('A' for Active; 'I' for Inactive)
REMARK    1  A    between atoms: _1  and  _3
REMARK    2  A    between atoms: _3  and  _4
REMARK    3  A    between atoms: _3  and  _6
REMARK    4  A    between atoms: _6  and  _7
REMARK    5  A    between atoms: _10  and  _12
REMARK    6  A    between atoms: _12  and  _13
REMARK    7  A    between atoms: _12  and  _15
REMARK    8  A    between atoms: _15  and  _16
REMARK    9  A    between atoms: _16  and  _17
REMARK   10  A    between atoms: _20  and  _22
REMARK   11  A    between atoms: _22  and  _23
REMARK   12  A    between atoms: _22  and  _25
REMARK   13  A    between atoms: _25  and  _26
REMARK   14  A    between atoms: _29  and  _31
REMARK   15  A    between atoms: _31  and  _32
REMARK   16  A    between atoms: _31  and  _34
REMARK   17  A    between atoms: _34  and  _35
REMARK   18  A    between atoms: _35  and  _36
REMARK   19  A    between atoms: _39  and  _41
REMARK   20  A    between atoms: _41  and  _42
REMARK   21  A    between atoms: _45  and  _47
REMARK   22  A    between atoms: _47  and  _48
REMARK   23  A    between atoms: _51  and  _53
REMARK   24  A    between atoms: _53  and  _54
REMARK   25  A    between atoms: _53  and  _56
REMARK   26  A    between atoms: _56  and  _57
REMARK   27  A    between atoms: _67  and  _69
REMARK   28  A    between atoms: _69  and  _70
REMARK   29  A    between atoms: _69  and  _72
REMARK   30  A    between atoms: _72  and  _73
REMARK   31  A    between atoms: _73  and  _74
REMARK   32  A    between atoms: _74  and  _75
REMARK   33  A    between atoms: _75  and  _76
REMARK   34  A    between atoms: _80  and  _82
REMARK   35  A    between atoms: _82  and  _83
REMARK   36  A    between atoms: _82  and  _85
REMARK   37  A    between atoms: _85  and  _86
REMARK   38  A    between atoms: _88  and  _90
REMARK   39  A    between atoms: _90  and  _91
REMARK   40  A    between atoms: _90  and  _93
REMARK   41  A    between atoms: _93  and  _94
REMARK   42  A    between atoms: _94  and  _95
REMARK   43  A    between atoms: _98  and  _100
REMARK   44  A    between atoms: _100  and  _101
REMARK   45  A    between atoms: _100  and  _103
REMARK   46  A    between atoms: _103  and  _104
REMARK   47  A    between atoms: _104  and  _105
REMARK   48  A    between atoms: _110  and  _112
REMARK   49  A    between atoms: _112  and  _113
REMARK   50  A    between atoms: _112  and  _115
REMARK   51  A    between atoms: _118  and  _120
REMARK   52  A    between atoms: _120  and  _121
REMARK   53  A    between atoms: _120  and  _123
REMARK   54  A    between atoms: _123  and  _124
REMARK   55  A    between atoms: _129  and  _131
REMARK   56  A    between atoms: _131  and  _132
REMARK   57  A    between atoms: _135  and  _137
REMARK   58  A    between atoms: _137  and  _138
REMARK   59  A    between atoms: _137  and  _140
REMARK   60  A    between atoms: _140  and  _141
REMARK   61  A    between atoms: _143  and  _145
REMARK   62  A    between atoms: _145  and  _146
REMARK   63  A    between atoms: _149  and  _151
REMARK   64  A    between atoms: _151  and  _152
REMARK   65  A    between atoms: _151  and  _154
REMARK   66  A    between atoms: _154  and  _155
REMARK   67  A    between atoms: _165  and  _167
REMARK   68  A    between atoms: _167  and  _168
REMARK   69  A    between atoms: _167  and  _170
REMARK   70  A    between atoms: _170  and  _171
REMARK   71  A    between atoms: _174  and  _176
REMARK   72  A    between atoms: _176  and  _177
REMARK   73  A    between atoms: _176  and  _179
REMARK   74  A    between atoms: _179  and  _180
REMARK   75  A    between atoms: _186  and  _188
REMARK   76  A    between atoms: _188  and  _189
REMARK   77  A    between atoms: _188  and  _191
REMARK   78  A    between atoms: _191  and  _192
REMARK   79  A    between atoms: _197  and  _198
REMARK   80  A    between atoms: _200  and  _202
REMARK   81  A    between atoms: _202  and  _203
REMARK   82  A    between atoms: _202  and  _205
REMARK   83  A    between atoms: _205  and  _206
REMARK   84  A    between atoms: _209  and  _211
REMARK   85  A    between atoms: _211  and  _212
REMARK   86  A    between atoms: _211  and  _214
REMARK   87  A    between atoms: _217  and  _219
REMARK   88  A    between atoms: _219  and  _220
REMARK   89  A    between atoms: _219  and  _222
REMARK   90  A    between atoms: _222  and  _223
REMARK   91  A    between atoms: _223  and  _224
REMARK   92  A    between atoms: _224  and  _225
REMARK   93  A    between atoms: _234  and  _236
REMARK   94  A    between atoms: _236  and  _237
REMARK   95  A    between atoms: _236  and  _239
REMARK   96  A    between atoms: _239  and  _240
REMARK   97  A    between atoms: _243  and  _245
REMARK   98  A    between atoms: _245  and  _246
REMARK   99  A    between atoms: _245  and  _248
REMARK  100  A    between atoms: _248  and  _249
REMARK  101  A    between atoms: _249  and  _250
REMARK  102  A    between atoms: _250  and  _251
REMARK  103  A    between atoms: _251  and  _252
REMARK  104  A    between atoms: _256  and  _258
REMARK  105  A    between atoms: _258  and  _259
REMARK  106  A    between atoms: _258  and  _261
REMARK  107  A    between atoms: _261  and  _262
REMARK  108  A    between atoms: _262  and  _263
REMARK  109  A    between atoms: _268  and  _270
REMARK  110  A    between atoms: _270  and  _271
REMARK  111  A    between atoms: _270  and  _273
REMARK  112  A    between atoms: _273  and  _274
REMARK  113  A    between atoms: _277  and  _279
REMARK  114  A    between atoms: _290  and  _293
REMARK  115  A    between atoms: _293  and  _294
REMARK  116  A    between atoms: _294  and  _295
REMARK  117  A    between atoms: _300  and  _303
REMARK  118  A    between atoms: _303  and  _304
REMARK  119  A    between atoms: _314  and  _315
REMARK  120  A    between atoms: _323  and  _325
REMARK  121  A    between atoms: _325  and  _326
REMARK  122  A    between atoms: _325  and  _328
REMARK  123  A    between atoms: _328  and  _329
REMARK  124  A    between atoms: _332  and  _334
REMARK  125  A    between atoms: _334  and  _335
REMARK  126  A    between atoms: _334  and  _337
REMARK  127  A    between atoms: _337  and  _338
REMARK  128  A    between atoms: _343  and  _344
REMARK  129  A    between atoms: _346  and  _348
REMARK  130  A    between atoms: _348  and  _349
REMARK  131  A    between atoms: _348  and  _351
REMARK  132  A    between atoms: _351  and  _352
REMARK  133  A    between atoms: _358  and  _360
REMARK  134  A    between atoms: _360  and  _361
REMARK  135  A    between atoms: _360  and  _363
REMARK  136  A    between atoms: _363  and  _364
REMARK  137  A    between atoms: _369  and  _370
REMARK  138  A    between atoms: _372  and  _374
REMARK  139  A    between atoms: _374  and  _375
REMARK  140  A    between atoms: _374  and  _377
REMARK  141  A    between atoms: _377  and  _378
REMARK  142  A    between atoms: _384  and  _386
REMARK  143  A    between atoms: _386  and  _387
REMARK  144  A    between atoms: _386  and  _389
REMARK  145  A    between atoms: _389  and  _390
REMARK  146  A    between atoms: _390  and  _391
REMARK  147  A    between atoms: _391  and  _392
REMARK  148  A    between atoms: _401  and  _403
REMARK  149  A    between atoms: _403  and  _404
REMARK  150  A    between atoms: _403  and  _406
REMARK  151  A    between atoms: _406  and  _407
REMARK  152  A    between atoms: _410  and  _412
REMARK  153  A    between atoms: _412  and  _413
REMARK  154  A    between atoms: _415  and  _417
REMARK  155  A    between atoms: _417  and  _418
REMARK  156  A    between atoms: _421  and  _423
REMARK  157  A    between atoms: _423  and  _424
REMARK  158  A    between atoms: _423  and  _426
REMARK  159  A    between atoms: _426  and  _427
REMARK  160  A    between atoms: _433  and  _434
REMARK  161  A    between atoms: _439  and  _441
REMARK  162  A    between atoms: _441  and  _442
REMARK  163  A    between atoms: _444  and  _446
REMARK  164  A    between atoms: _446  and  _447
REMARK  165  A    between atoms: _446  and  _449
REMARK  166  A    between atoms: _449  and  _450
REMARK  167  A    between atoms: _456  and  _458
REMARK  168  A    between atoms: _458  and  _459
REMARK  169  A    between atoms: _458  and  _461
REMARK  170  A    between atoms: _461  and  _462
REMARK  171  A    between atoms: _467  and  _469
REMARK  172  A    between atoms: _469  and  _470
REMARK  173  A    between atoms: _469  and  _472
REMARK  174  A    between atoms: _472  and  _473
REMARK  175  A    between atoms: _473  and  _474
REMARK  176  A    between atoms: _474  and  _475
REMARK  177  A    between atoms: _475  and  ZN_601
REMARK  178  A    between atoms: _477  and  _479
REMARK  179  A    between atoms: _479  and  _480
REMARK  180  A    between atoms: _479  and  _482
REMARK  181  A    between atoms: _482  and  _483
REMARK  182  A    between atoms: _483  and  _484
REMARK  183  A    between atoms: _484  and  _485
REMARK  184  A    between atoms: _485  and  _486
REMARK  185  A    between atoms: _490  and  _492
REMARK  186  A    between atoms: _492  and  _493
REMARK  187  A    between atoms: _492  and  _495
REMARK  188  A    between atoms: _495  and  _496
REMARK  189  A    between atoms: _501  and  _502
REMARK  190  A    between atoms: _504  and  _506
REMARK  191  A    between atoms: _506  and  _507
REMARK  192  A    between atoms: _506  and  _509
REMARK  193  A    between atoms: _509  and  _510
REMARK  194  A    between atoms: _515  and  _517
REMARK  195  A    between atoms: _517  and  _518
REMARK  196  A    between atoms: _521  and  _523
REMARK  197  A    between atoms: _523  and  _524
REMARK  198  A    between atoms: _523  and  _526
REMARK  199  A    between atoms: _526  and  _527
REMARK  200  A    between atoms: _530  and  _532
REMARK  201  A    between atoms: _532  and  _533
REMARK  202  A    between atoms: _532  and  _535
REMARK  203  A    between atoms: _538  and  _540
REMARK  204  A    between atoms: _540  and  _541
REMARK  205  A    between atoms: _540  and  _543
REMARK  206  A    between atoms: _543  and  _544
REMARK  207  A    between atoms: _544  and  _545
REMARK  208  A    between atoms: _548  and  _550
REMARK  209  A    between atoms: _550  and  _551
REMARK  210  A    between atoms: _550  and  _553
REMARK  211  A    between atoms: _553  and  _554
REMARK  212  A    between atoms: _559  and  _560
REMARK  213  A    between atoms: _562  and  _564
REMARK  214  A    between atoms: _564  and  _565
REMARK  215  A    between atoms: _564  and  _567
REMARK  216  A    between atoms: _567  and  _568
REMARK  217  A    between atoms: _568  and  _569
REMARK  218  A    between atoms: _569  and  _570
REMARK  219  A    between atoms: _579  and  _581
REMARK  220  A    between atoms: _581  and  _582
REMARK  221  A    between atoms: _581  and  _584
REMARK  222  A    between atoms: _584  and  _585
REMARK  223  A    between atoms: _590  and  _591
REMARK  224  A    between atoms: _593  and  _595
REMARK  225  A    between atoms: _595  and  _596
REMARK  226  A    between atoms: _595  and  _598
REMARK  227  A    between atoms: _598  and  _599
REMARK                            x       y       z     vdW  Elec       q    Type
REMARK                         _______ _______ _______ _____ _____    ______ ____
ROOT
ATOM      1  CG  LYS A   1       0.779  28.156  -4.316  0.00  0.00    -0.000 C 
ENDROOT
BRANCH   1   2
ATOM      2  CB  LYS A   1       1.763  28.006  -3.161  0.00  0.00    +0.025 C 
BRANCH   2   3
ATOM      3  CA  LYS A   1       3.234  28.223  -3.547  0.00  0.00    +0.133 C 
BRANCH   3   4
ATOM      4  N   LYS A   1       4.097  28.107  -2.369  0.00  0.00    -0.239 NA
ATOM      5  H   LYS A   1       3.661  27.858  -1.458  0.00  0.00    +0.142 HD
ENDBRANCH   3   4
BRANCH   3   6
ATOM      6  C   LYS A   1       3.398  29.578  -4.236  0.00  0.00    +0.224 C 
ATOM      7  O   LYS A   1       3.592  29.641  -5.447  0.00  0.00    -0.287 OA
ENDBRANCH   3   6
ENDBRANCH   2   3
ENDBRANCH   1   2
BRANCH   1   8
ATOM      8  CD  LYS A   1      -0.654  28.364  -3.835  0.00  0.00    -0.024 C 
BRANCH   8   9
ATOM      9  CE  LYS A   1      -1.554  28.773  -5.001  0.00  0.00    -0.086 C 
BRANCH   9  10
ATOM     10  NZ  LYS A   1      -2.995  28.753  -4.636  0.00  0.00    +0.380 N 
ATOM     11  HZ1 LYS A   1      -3.162  29.415  -3.852  0.00  0.00    -0.089 HD
ATOM     12  HZ2 LYS A   1      -3.264  27.792  -4.343  0.00  0.00    -0.089 HD
ATOM     13  HZ3 LYS A   1      -3.564  29.037  -5.459  0.00  0.00    -0.089 HD
ENDBRANCH   9  10
ENDBRANCH   8   9
ENDBRANCH   1   8
TORSDOF 7
REMARK  Name = ../refined-set-2016/2xhm/2xhm_pocket.pdb
REMARK  227 active torsions:
REMARK  status: ('A' for Active; 'I' for Inactive)
REMARK    1  A    between atoms: _1  and  _3
REMARK    2  A    between atoms: _3  and  _4
REMARK    3  A    between atoms: _3  and  _6
REMARK    4  A    between atoms: _6  and  _7
REMARK    5  A    between atoms: _10  and  _12
REMARK    6  A    between atoms: _12  and  _13
REMARK    7  A    between atoms: _12  and  _15
REMARK    8  A    between atoms: _15  and  _16
REMARK    9  A    between atoms: _16  and  _17
REMARK   10  A    between atoms: _20  and  _22
REMARK   11  A    between atoms: _22  and  _23
REMARK   12  A    between atoms: _22  and  _25
REMARK   13  A    between atoms: _25  and  _26
REMARK   14  A    between atoms: _29  and  _31
REMARK   15  A    between atoms: _31  and  _32
REMARK   16  A    between atoms: _31  and  _34
REMARK   17  A    between atoms: _34  and  _35
REMARK   18  A    between atoms: _35  and  _36
REMARK   19  A    between atoms: _39  and  _41
REMARK   20  A    between atoms: _41  and  _42
REMARK   21  A    between atoms: _45  and  _47
REMARK   22  A    between atoms: _47  and  _48
REMARK   23  A    between atoms: _51  and  _53
REMARK   24  A    between atoms: _53  and  _54
REMARK   25  A    between atoms: _53  and  _56
REMARK   26  A    between atoms: _56  and  _57
REMARK   27  A    between atoms: _67  and  _69
REMARK   28  A    between atoms: _69  and  _70
REMARK   29  A    between atoms: _69  and  _72
REMARK   30  A    between atoms: _72  and  _73
REMARK   31  A    between atoms: _73  and  _74
REMARK   32  A    between atoms: _74  and  _75
REMARK   33  A    between atoms: _75  and  _76
REMARK   34  A    between atoms: _80  and  _82
REMARK   35  A    between atoms: _82  and  _83
REMARK   36  A    between atoms: _82  and  _85
REMARK   37  A    between atoms: _85  and  _86
REMARK   38  A    between atoms: _88  and  _90
REMARK   39  A    between atoms: _90  and  _91
REMARK   40  A    between atoms: _90  and  _93
REMARK   41  A    between atoms: _93  and  _94
REMARK   42  A    between atoms: _94  and  _95
REMARK   43  A    between atoms: _98  and  _100
REMARK   44  A    between atoms: _100  and  _101
REMARK   45  A    between atoms: _100  and  _103
REMARK   46  A    between atoms: _103  and  _104
REMARK   47  A    between atoms: _104  and  _105
REMARK   48  A    between atoms: _110  and  _112
REMARK   49  A    between atoms: _112  and  _113
REMARK   50  A    between atoms: _112  and  _115
REMARK   51  A    between atoms: _118  and  _120
REMARK   52  A    between atoms: _120  and  _121
REMARK   53  A    between atoms: _120  and  _123
REMARK   54  A    between atoms: _123  and  _124
REMARK   55  A    between atoms: _129  and  _131
REMARK   56  A    between atoms: _131  and  _132
REMARK   57  A    between atoms: _135  and  _137
REMARK   58  A    between atoms: _137  and  _138
REMARK   59  A    between atoms: _137  and  _140
REMARK   60  A    between atoms: _140  and  _141
REMARK   61  A    between atoms: _143  and  _145
REMARK   62  A    between atoms: _145  and  _146
REMARK   63  A    between atoms: _149  and  _151
REMARK   64  A    between atoms: _151  and  _152
REMARK   65  A    between atoms: _151  and  _154
REMARK   66  A    between atoms: _154  and  _155
REMARK   67  A    between atoms: _165  and  _167
REMARK   68  A    between atoms: _167  and  _168
REMARK   69  A    between atoms: _167  and  _170
REMARK   70  A    between atoms: _170  and  _171
REMARK   71  A    between atoms: _174  and  _176
REMARK   72  A    between atoms: _176  and  _177
REMARK   73  A    between atoms: _176  and  _179
REMARK   74  A    between atoms: _179  and  _180
REMARK   75  A    between atoms: _186  and  _188
REMARK   76  A    between atoms: _188  and  _189
REMARK   77  A    between atoms: _188  and  _191
REMARK   78  A    between atoms: _191  and  _192
REMARK   79  A    between atoms: _197  and  _198
REMARK   80  A    between atoms: _200  and  _202
REMARK   81  A    between atoms: _202  and  _203
REMARK   82  A    between atoms: _202  and  _205
REMARK   83  A    between atoms: _205  and  _206
REMARK   84  A    between atoms: _209  and  _211
REMARK   85  A    between atoms: _211  and  _212
REMARK   86  A    between atoms: _211  and  _214
REMARK   87  A    between atoms: _217  and  _219
REMARK   88  A    between atoms: _219  and  _220
REMARK   89  A    between atoms: _219  and  _222
REMARK   90  A    between atoms: _222  and  _223
REMARK   91  A    between atoms: _223  and  _224
REMARK   92  A    between atoms: _224  and  _225
REMARK   93  A    between atoms: _234  and  _236
REMARK   94  A    between atoms: _236  and  _237
REMARK   95  A    between atoms: _236  and  _239
REMARK   96  A    between atoms: _239  and  _240
REMARK   97  A    between atoms: _243  and  _245
REMARK   98  A    between atoms: _245  and  _246
REMARK   99  A    between atoms: _245  and  _248
REMARK  100  A    between atoms: _248  and  _249
REMARK  101  A    between atoms: _249  and  _250
REMARK  102  A    between atoms: _250  and  _251
REMARK  103  A    between atoms: _251  and  _252
REMARK  104  A    between atoms: _256  and  _258
REMARK  105  A    between atoms: _258  and  _259
REMARK  106  A    between atoms: _258  and  _261
REMARK  107  A    between atoms: _261  and  _262
REMARK  108  A    between atoms: _262  and  _263
REMARK  109  A    between atoms: _268  and  _270
REMARK  110  A    between atoms: _270  and  _271
REMARK  111  A    between atoms: _270  and  _273
REMARK  112  A    between atoms: _273  and  _274
REMARK  113  A    between atoms: _277  and  _279
REMARK  114  A    between atoms: _290  and  _293
REMARK  115  A    between atoms: _293  and  _294
REMARK  116  A    between atoms: _294  and  _295
REMARK  117  A    between atoms: _300  and  _303
REMARK  118  A    between atoms: _303  and  _304
REMARK  119  A    between atoms: _314  and  _315
REMARK  120  A    between atoms: _323  and  _325
REMARK  121  A    between atoms: _325  and  _326
REMARK  122  A    between atoms: _325  and  _328
REMARK  123  A    between atoms: _328  and  _329
REMARK  124  A    between atoms: _332  and  _334
REMARK  125  A    between atoms: _334  and  _335
REMARK  126  A    between atoms: _334  and  _337
REMARK  127  A    between atoms: _337  and  _338
REMARK  128  A    between atoms: _343  and  _344
REMARK  129  A    between atoms: _346  and  _348
REMARK  130  A    between atoms: _348  and  _349
REMARK  131  A    between atoms: _348  and  _351
REMARK  132  A    between atoms: _351  and  _352
REMARK  133  A    between atoms: _358  and  _360
REMARK  134  A    between atoms: _360  and  _361
REMARK  135  A    between atoms: _360  and  _363
REMARK  136  A    between atoms: _363  and  _364
REMARK  137  A    between atoms: _369  and  _370
REMARK  138  A    between atoms: _372  and  _374
REMARK  139  A    between atoms: _374  and  _375
REMARK  140  A    between atoms: _374  and  _377
REMARK  141  A    between atoms: _377  and  _378
REMARK  142  A    between atoms: _384  and  _386
REMARK  143  A    between atoms: _386  and  _387
REMARK  144  A    between atoms: _386  and  _389
REMARK  145  A    between atoms: _389  and  _390
REMARK  146  A    between atoms: _390  and  _391
REMARK  147  A    between atoms: _391  and  _392
REMARK  148  A    between atoms: _401  and  _403
REMARK  149  A    between atoms: _403  and  _404
REMARK  150  A    between atoms: _403  and  _406
REMARK  151  A    between atoms: _406  and  _407
REMARK  152  A    between atoms: _410  and  _412
REMARK  153  A    between atoms: _412  and  _413
REMARK  154  A    between atoms: _415  and  _417
REMARK  155  A    between atoms: _417  and  _418
REMARK  156  A    between atoms: _421  and  _423
REMARK  157  A    between atoms: _423  and  _424
REMARK  158  A    between atoms: _423  and  _426
REMARK  159  A    between atoms: _426  and  _427
REMARK  160  A    between atoms: _433  and  _434
REMARK  161  A    between atoms: _439  and  _441
REMARK  162  A    between atoms: _441  and  _442
REMARK  163  A    between atoms: _444  and  _446
REMARK  164  A    between atoms: _446  and  _447
REMARK  165  A    between atoms: _446  and  _449
REMARK  166  A    between atoms: _449  and  _450
REMARK  167  A    between atoms: _456  and  _458
REMARK  168  A    between atoms: _458  and  _459
REMARK  169  A    between atoms: _458  and  _461
REMARK  170  A    between atoms: _461  and  _462
REMARK  171  A    between atoms: _467  and  _469
REMARK  172  A    between atoms: _469  and  _470
REMARK  173  A    between atoms: _469  and  _472
REMARK  174  A    between atoms: _472  and  _473
REMARK  175  A    between atoms: _473  and  _474
REMARK  176  A    between atoms: _474  and  _475
REMARK  177  A    between atoms: _475  and  ZN_601
REMARK  178  A    between atoms: _477  and  _479
REMARK  179  A    between atoms: _479  and  _480
REMARK  180  A    between atoms: _479  and  _482
REMARK  181  A    between atoms: _482  and  _483
REMARK  182  A    between atoms: _483  and  _484
REMARK  183  A    between atoms: _484  and  _485
REMARK  184  A    between atoms: _485  and  _486
REMARK  185  A    between atoms: _490  and  _492
REMARK  186  A    between atoms: _492  and  _493
REMARK  187  A    between atoms: _492  and  _495
REMARK  188  A    between atoms: _495  and  _496
REMARK  189  A    between atoms: _501  and  _502
REMARK  190  A    between atoms: _504  and  _506
REMARK  191  A    between atoms: _506  and  _507
REMARK  192  A    between atoms: _506  and  _509
REMARK  193  A    between atoms: _509  and  _510
REMARK  194  A    between atoms: _515  and  _517
REMARK  195  A    between atoms: _517  and  _518
REMARK  196  A    between atoms: _521  and  _523
REMARK  197  A    between atoms: _523  and  _524
REMARK  198  A    between atoms: _523  and  _526
REMARK  199  A    between atoms: _526  and  _527
REMARK  200  A    between atoms: _530  and  _532
REMARK  201  A    between atoms: _532  and  _533
REMARK  202  A    between atoms: _532  and  _535
REMARK  203  A    between atoms: _538  and  _540
REMARK  204  A    between atoms: _540  and  _541
REMARK  205  A    between atoms: _540  and  _543
REMARK  206  A    between atoms: _543  and  _544
REMARK  207  A    between atoms: _544  and  _545
REMARK  208  A    between atoms: _548  and  _550
REMARK  209  A    between atoms: _550  and  _551
REMARK  210  A    between atoms: _550  and  _553
REMARK  211  A    between atoms: _553  and  _554
REMARK  212  A    between atoms: _559  and  _560
REMARK  213  A    between atoms: _562  and  _564
REMARK  214  A    between atoms: _564  and  _565
REMARK  215  A    between atoms: _564  and  _567
REMARK  216  A    between atoms: _567  and  _568
REMARK  217  A    between atoms: _568  and  _569
REMARK  218  A    between atoms: _569  and  _570
REMARK  219  A    between atoms: _579  and  _581
REMARK  220  A    between atoms: _581  and  _582
REMARK  221  A    between atoms: _581  and  _584
REMARK  222  A    between atoms: _584  and  _585
REMARK  223  A    between atoms: _590  and  _591
REMARK  224  A    between atoms: _593  and  _595
REMARK  225  A    between atoms: _595  and  _596
REMARK  226  A    between atoms: _595  and  _598
REMARK  227  A    between atoms: _598  and  _599
REMARK                            x       y       z     vdW  Elec       q    Type
REMARK                         _______ _______ _______ _____ _____    ______ ____
ROOT
ATOM      1  CA  SER A   1       4.383  31.641  -8.876  0.00  0.00    +0.163 C 
ENDROOT
BRANCH   1   2
ATOM      2  N   SER A   1       5.228  30.879  -7.953  0.00  0.00    -0.237 NA
ATOM      3  H   SER A   1       4.883  30.694  -6.990  0.00  0.00    +0.142 HD
ENDBRANCH   1   2
BRANCH   1   4
ATOM      4  C   SER A   1       5.044  32.954  -9.288  0.00  0.00    +0.227 C 
ATOM      5  O   SER A   1       5.061  33.299 -10.472  0.00  0.00    -0.287 OA
ENDBRANCH   1   4
BRANCH   1   6
ATOM      6  CB  SER A   1       3.008  31.904  -8.263  0.00  0.00    +0.162 C 
BRANCH   6   7
ATOM      7  OG  SER A   1       2.240  30.719  -8.241  0.00  0.00    -0.380 OA
ATOM      8  H   SER A   1       2.122  30.387  -9.166  0.00  0.00    +0.211 HD
ENDBRANCH   6   7
ENDBRANCH   1   6
TORSDOF 4
REMARK  Name = ../refined-set-2016/2xhm/2xhm_pocket.pdb
REMARK  227 active torsions:
REMARK  status: ('A' for Active; 'I' for Inactive)
REMARK    1  A    between atoms: _1  and  _3
REMARK    2  A    between atoms: _3  and  _4
REMARK    3  A    between atoms: _3  and  _6
REMARK    4  A    between atoms: _6  and  _7
REMARK    5  A    between atoms: _10  and  _12
REMARK    6  A    between atoms: _12  and  _13
REMARK    7  A    between atoms: _12  and  _15
REMARK    8  A    between atoms: _15  and  _16
REMARK    9  A    between atoms: _16  and  _17
REMARK   10  A    between atoms: _20  and  _22
REMARK   11  A    between atoms: _22  and  _23
REMARK   12  A    between atoms: _22  and  _25
REMARK   13  A    between atoms: _25  and  _26
REMARK   14  A    between atoms: _29  and  _31
REMARK   15  A    between atoms: _31  and  _32
REMARK   16  A    between atoms: _31  and  _34
REMARK   17  A    between atoms: _34  and  _35
REMARK   18  A    between atoms: _35  and  _36
REMARK   19  A    between atoms: _39  and  _41
REMARK   20  A    between atoms: _41  and  _42
REMARK   21  A    between atoms: _45  and  _47
REMARK   22  A    between atoms: _47  and  _48
REMARK   23  A    between atoms: _51  and  _53
REMARK   24  A    between atoms: _53  and  _54
REMARK   25  A    between atoms: _53  and  _56
REMARK   26  A    between atoms: _56  and  _57
REMARK   27  A    between atoms: _67  and  _69
REMARK   28  A    between atoms: _69  and  _70
REMARK   29  A    between atoms: _69  and  _72
REMARK   30  A    between atoms: _72  and  _73
REMARK   31  A    between atoms: _73  and  _74
REMARK   32  A    between atoms: _74  and  _75
REMARK   33  A    between atoms: _75  and  _76
REMARK   34  A    between atoms: _80  and  _82
REMARK   35  A    between atoms: _82  and  _83
REMARK   36  A    between atoms: _82  and  _85
REMARK   37  A    between atoms: _85  and  _86
REMARK   38  A    between atoms: _88  and  _90
REMARK   39  A    between atoms: _90  and  _91
REMARK   40  A    between atoms: _90  and  _93
REMARK   41  A    between atoms: _93  and  _94
REMARK   42  A    between atoms: _94  and  _95
REMARK   43  A    between atoms: _98  and  _100
REMARK   44  A    between atoms: _100  and  _101
REMARK   45  A    between atoms: _100  and  _103
REMARK   46  A    between atoms: _103  and  _104
REMARK   47  A    between atoms: _104  and  _105
REMARK   48  A    between atoms: _110  and  _112
REMARK   49  A    between atoms: _112  and  _113
REMARK   50  A    between atoms: _112  and  _115
REMARK   51  A    between atoms: _118  and  _120
REMARK   52  A    between atoms: _120  and  _121
REMARK   53  A    between atoms: _120  and  _123
REMARK   54  A    between atoms: _123  and  _124
REMARK   55  A    between atoms: _129  and  _131
REMARK   56  A    between atoms: _131  and  _132
REMARK   57  A    between atoms: _135  and  _137
REMARK   58  A    between atoms: _137  and  _138
REMARK   59  A    between atoms: _137  and  _140
REMARK   60  A    between atoms: _140  and  _141
REMARK   61  A    between atoms: _143  and  _145
REMARK   62  A    between atoms: _145  and  _146
REMARK   63  A    between atoms: _149  and  _151
REMARK   64  A    between atoms: _151  and  _152
REMARK   65  A    between atoms: _151  and  _154
REMARK   66  A    between atoms: _154  and  _155
REMARK   67  A    between atoms: _165  and  _167
REMARK   68  A    between atoms: _167  and  _168
REMARK   69  A    between atoms: _167  and  _170
REMARK   70  A    between atoms: _170  and  _171
REMARK   71  A    between atoms: _174  and  _176
REMARK   72  A    between atoms: _176  and  _177
REMARK   73  A    between atoms: _176  and  _179
REMARK   74  A    between atoms: _179  and  _180
REMARK   75  A    between atoms: _186  and  _188
REMARK   76  A    between atoms: _188  and  _189
REMARK   77  A    between atoms: _188  and  _191
REMARK   78  A    between atoms: _191  and  _192
REMARK   79  A    between atoms: _197  and  _198
REMARK   80  A    between atoms: _200  and  _202
REMARK   81  A    between atoms: _202  and  _203
REMARK   82  A    between atoms: _202  and  _205
REMARK   83  A    between atoms: _205  and  _206
REMARK   84  A    between atoms: _209  and  _211
REMARK   85  A    between atoms: _211  and  _212
REMARK   86  A    between atoms: _211  and  _214
REMARK   87  A    between atoms: _217  and  _219
REMARK   88  A    between atoms: _219  and  _220
REMARK   89  A    between atoms: _219  and  _222
REMARK   90  A    between atoms: _222  and  _223
REMARK   91  A    between atoms: _223  and  _224
REMARK   92  A    between atoms: _224  and  _225
REMARK   93  A    between atoms: _234  and  _236
REMARK   94  A    between atoms: _236  and  _237
REMARK   95  A    between atoms: _236  and  _239
REMARK   96  A    between atoms: _239  and  _240
REMARK   97  A    between atoms: _243  and  _245
REMARK   98  A    between atoms: _245  and  _246
REMARK   99  A    between atoms: _245  and  _248
REMARK  100  A    between atoms: _248  and  _249
REMARK  101  A    between atoms: _249  and  _250
REMARK  102  A    between atoms: _250  and  _251
REMARK  103  A    between atoms: _251  and  _252
REMARK  104  A    between atoms: _256  and  _258
REMARK  105  A    between atoms: _258  and  _259
REMARK  106  A    between atoms: _258  and  _261
REMARK  107  A    between atoms: _261  and  _262
REMARK  108  A    between atoms: _262  and  _263
REMARK  109  A    between atoms: _268  and  _270
REMARK  110  A    between atoms: _270  and  _271
REMARK  111  A    between atoms: _270  and  _273
REMARK  112  A    between atoms: _273  and  _274
REMARK  113  A    between atoms: _277  and  _279
REMARK  114  A    between atoms: _290  and  _293
REMARK  115  A    between atoms: _293  and  _294
REMARK  116  A    between atoms: _294  and  _295
REMARK  117  A    between atoms: _300  and  _303
REMARK  118  A    between atoms: _303  and  _304
REMARK  119  A    between atoms: _314  and  _315
REMARK  120  A    between atoms: _323  and  _325
REMARK  121  A    between atoms: _325  and  _326
REMARK  122  A    between atoms: _325  and  _328
REMARK  123  A    between atoms: _328  and  _329
REMARK  124  A    between atoms: _332  and  _334
REMARK  125  A    between atoms: _334  and  _335
REMARK  126  A    between atoms: _334  and  _337
REMARK  127  A    between atoms: _337  and  _338
REMARK  128  A    between atoms: _343  and  _344
REMARK  129  A    between atoms: _346  and  _348
REMARK  130  A    between atoms: _348  and  _349
REMARK  131  A    between atoms: _348  and  _351
REMARK  132  A    between atoms: _351  and  _352
REMARK  133  A    between atoms: _358  and  _360
REMARK  134  A    between atoms: _360  and  _361
REMARK  135  A    between atoms: _360  and  _363
REMARK  136  A    between atoms: _363  and  _364
REMARK  137  A    between atoms: _369  and  _370
REMARK  138  A    between atoms: _372  and  _374
REMARK  139  A    between atoms: _374  and  _375
REMARK  140  A    between atoms: _374  and  _377
REMARK  141  A    between atoms: _377  and  _378
REMARK  142  A    between atoms: _384  and  _386
REMARK  143  A    between atoms: _386  and  _387
REMARK  144  A    between atoms: _386  and  _389
REMARK  145  A    between atoms: _389  and  _390
REMARK  146  A    between atoms: _390  and  _391
REMARK  147  A    between atoms: _391  and  _392
REMARK  148  A    between atoms: _401  and  _403
REMARK  149  A    between atoms: _403  and  _404
REMARK  150  A    between atoms: _403  and  _406
REMARK  151  A    between atoms: _406  and  _407
REMARK  152  A    between atoms: _410  and  _412
REMARK  153  A    between atoms: _412  and  _413
REMARK  154  A    between atoms: _415  and  _417
REMARK  155  A    between atoms: _417  and  _418
REMARK  156  A    between atoms: _421  and  _423
REMARK  157  A    between atoms: _423  and  _424
REMARK  158  A    between atoms: _423  and  _426
REMARK  159  A    between atoms: _426  and  _427
REMARK  160  A    between atoms: _433  and  _434
REMARK  161  A    between atoms: _439  and  _441
REMARK  162  A    between atoms: _441  and  _442
REMARK  163  A    between atoms: _444  and  _446
REMARK  164  A    between atoms: _446  and  _447
REMARK  165  A    between atoms: _446  and  _449
REMARK  166  A    between atoms: _449  and  _450
REMARK  167  A    between atoms: _456  and  _458
REMARK  168  A    between atoms: _458  and  _459
REMARK  169  A    between atoms: _458  and  _461
REMARK  170  A    between atoms: _461  and  _462
REMARK  171  A    between atoms: _467  and  _469
REMARK  172  A    between atoms: _469  and  _470
REMARK  173  A    between atoms: _469  and  _472
REMARK  174  A    between atoms: _472  and  _473
REMARK  175  A    between atoms: _473  and  _474
REMARK  176  A    between atoms: _474  and  _475
REMARK  177  A    between atoms: _475  and  ZN_601
REMARK  178  A    between atoms: _477  and  _479
REMARK  179  A    between atoms: _479  and  _480
REMARK  180  A    between atoms: _479  and  _482
REMARK  181  A    between atoms: _482  and  _483
REMARK  182  A    between atoms: _483  and  _484
REMARK  183  A    between atoms: _484  and  _485
REMARK  184  A    between atoms: _485  and  _486
REMARK  185  A    between atoms: _490  and  _492
REMARK  186  A    between atoms: _492  and  _493
REMARK  187  A    between atoms: _492  and  _495
REMARK  188  A    between atoms: _495  and  _496
REMARK  189  A    between atoms: _501  and  _502
REMARK  190  A    between atoms: _504  and  _506
REMARK  191  A    between atoms: _506  and  _507
REMARK  192  A    between atoms: _506  and  _509
REMARK  193  A    between atoms: _509  and  _510
REMARK  194  A    between atoms: _515  and  _517
REMARK  195  A    between atoms: _517  and  _518
REMARK  196  A    between atoms: _521  and  _523
REMARK  197  A    between atoms: _523  and  _524
REMARK  198  A    between atoms: _523  and  _526
REMARK  199  A    between atoms: _526  and  _527
REMARK  200  A    between atoms: _530  and  _532
REMARK  201  A    between atoms: _532  and  _533
REMARK  202  A    between atoms: _532  and  _535
REMARK  203  A    between atoms: _538  and  _540
REMARK  204  A    between atoms: _540  and  _541
REMARK  205  A    between atoms: _540  and  _543
REMARK  206  A    between atoms: _543  and  _544
REMARK  207  A    between atoms: _544  and  _545
REMARK  208  A    between atoms: _548  and  _550
REMARK  209  A    between atoms: _550  and  _551
REMARK  210  A    between atoms: _550  and  _553
REMARK  211  A    between atoms: _553  and  _554
REMARK  212  A    between atoms: _559  and  _560
REMARK  213  A    between atoms: _562  and  _564
REMARK  214  A    between atoms: _564  and  _565
REMARK  215  A    between atoms: _564  and  _567
REMARK  216  A    between atoms: _567  and  _568
REMARK  217  A    between atoms: _568  and  _569
REMARK  218  A    between atoms: _569  and  _570
REMARK  219  A    between atoms: _579  and  _581
REMARK  220  A    between atoms: _581  and  _582
REMARK  221  A    between atoms: _581  and  _584
REMARK  222  A    between atoms: _584  and  _585
REMARK  223  A    between atoms: _590  and  _591
REMARK  224  A    between atoms: _593  and  _595
REMARK  225  A    between atoms: _595  and  _596
REMARK  226  A    between atoms: _595  and  _598
REMARK  227  A    between atoms: _598  and  _599
REMARK                            x       y       z     vdW  Elec       q    Type
REMARK                         _______ _______ _______ _____ _____    ______ ____
ROOT
ATOM      1  CA  GLU A   1      -9.006  31.085  -0.546  0.00  0.00    +0.134 C 
ENDROOT
BRANCH   1   2
ATOM      2  N   GLU A   1      -8.778  32.525  -0.390  0.00  0.00    -0.239 NA
ATOM      3  H   GLU A   1      -7.963  32.969  -0.859  0.00  0.00    +0.142 HD
ENDBRANCH   1   2
BRANCH   1   4
ATOM      4  C   GLU A   1      -8.870  30.344   0.785  0.00  0.00    +0.224 C 
ATOM      5  O   GLU A   1      -9.666  29.452   1.080  0.00  0.00    -0.287 OA
ENDBRANCH   1   4
BRANCH   1   6
ATOM      6  CB  GLU A   1      -8.088  30.467  -1.611  0.00  0.00    +0.037 C 
BRANCH   6   7
ATOM      7  CG  GLU A   1      -8.434  29.009  -1.950  0.00  0.00    +0.116 C 
BRANCH   7   8
ATOM      8  CD  GLU A   1      -7.968  28.567  -3.337  0.00  0.00    +0.365 C 
ATOM      9  OE2 GLU A   1      -8.454  27.519  -3.819  0.00  0.00    -0.246 OA
ATOM     10  OE1 GLU A   1      -7.123  29.259  -3.948  0.00  0.00    -0.246 OA
ENDBRANCH   7   8
ENDBRANCH   6   7
ENDBRANCH   1   6
TORSDOF 5
REMARK  Name = ../refined-set-2016/2xhm/2xhm_pocket.pdb
REMARK  227 active torsions:
REMARK  status: ('A' for Active; 'I' for Inactive)
REMARK    1  A    between atoms: _1  and  _3
REMARK    2  A    between atoms: _3  and  _4
REMARK    3  A    between atoms: _3  and  _6
REMARK    4  A    between atoms: _6  and  _7
REMARK    5  A    between atoms: _10  and  _12
REMARK    6  A    between atoms: _12  and  _13
REMARK    7  A    between atoms: _12  and  _15
REMARK    8  A    between atoms: _15  and  _16
REMARK    9  A    between atoms: _16  and  _17
REMARK   10  A    between atoms: _20  and  _22
REMARK   11  A    between atoms: _22  and  _23
REMARK   12  A    between atoms: _22  and  _25
REMARK   13  A    between atoms: _25  and  _26
REMARK   14  A    between atoms: _29  and  _31
REMARK   15  A    between atoms: _31  and  _32
REMARK   16  A    between atoms: _31  and  _34
REMARK   17  A    between atoms: _34  and  _35
REMARK   18  A    between atoms: _35  and  _36
REMARK   19  A    between atoms: _39  and  _41
REMARK   20  A    between atoms: _41  and  _42
REMARK   21  A    between atoms: _45  and  _47
REMARK   22  A    between atoms: _47  and  _48
REMARK   23  A    between atoms: _51  and  _53
REMARK   24  A    between atoms: _53  and  _54
REMARK   25  A    between atoms: _53  and  _56
REMARK   26  A    between atoms: _56  and  _57
REMARK   27  A    between atoms: _67  and  _69
REMARK   28  A    between atoms: _69  and  _70
REMARK   29  A    between atoms: _69  and  _72
REMARK   30  A    between atoms: _72  and  _73
REMARK   31  A    between atoms: _73  and  _74
REMARK   32  A    between atoms: _74  and  _75
REMARK   33  A    between atoms: _75  and  _76
REMARK   34  A    between atoms: _80  and  _82
REMARK   35  A    between atoms: _82  and  _83
REMARK   36  A    between atoms: _82  and  _85
REMARK   37  A    between atoms: _85  and  _86
REMARK   38  A    between atoms: _88  and  _90
REMARK   39  A    between atoms: _90  and  _91
REMARK   40  A    between atoms: _90  and  _93
REMARK   41  A    between atoms: _93  and  _94
REMARK   42  A    between atoms: _94  and  _95
REMARK   43  A    between atoms: _98  and  _100
REMARK   44  A    between atoms: _100  and  _101
REMARK   45  A    between atoms: _100  and  _103
REMARK   46  A    between atoms: _103  and  _104
REMARK   47  A    between atoms: _104  and  _105
REMARK   48  A    between atoms: _110  and  _112
REMARK   49  A    between atoms: _112  and  _113
REMARK   50  A    between atoms: _112  and  _115
REMARK   51  A    between atoms: _118  and  _120
REMARK   52  A    between atoms: _120  and  _121
REMARK   53  A    between atoms: _120  and  _123
REMARK   54  A    between atoms: _123  and  _124
REMARK   55  A    between atoms: _129  and  _131
REMARK   56  A    between atoms: _131  and  _132
REMARK   57  A    between atoms: _135  and  _137
REMARK   58  A    between atoms: _137  and  _138
REMARK   59  A    between atoms: _137  and  _140
REMARK   60  A    between atoms: _140  and  _141
REMARK   61  A    between atoms: _143  and  _145
REMARK   62  A    between atoms: _145  and  _146
REMARK   63  A    between atoms: _149  and  _151
REMARK   64  A    between atoms: _151  and  _152
REMARK   65  A    between atoms: _151  and  _154
REMARK   66  A    between atoms: _154  and  _155
REMARK   67  A    between atoms: _165  and  _167
REMARK   68  A    between atoms: _167  and  _168
REMARK   69  A    between atoms: _167  and  _170
REMARK   70  A    between atoms: _170  and  _171
REMARK   71  A    between atoms: _174  and  _176
REMARK   72  A    between atoms: _176  and  _177
REMARK   73  A    between atoms: _176  and  _179
REMARK   74  A    between atoms: _179  and  _180
REMARK   75  A    between atoms: _186  and  _188
REMARK   76  A    between atoms: _188  and  _189
REMARK   77  A    between atoms: _188  and  _191
REMARK   78  A    between atoms: _191  and  _192
REMARK   79  A    between atoms: _197  and  _198
REMARK   80  A    between atoms: _200  and  _202
REMARK   81  A    between atoms: _202  and  _203
REMARK   82  A    between atoms: _202  and  _205
REMARK   83  A    between atoms: _205  and  _206
REMARK   84  A    between atoms: _209  and  _211
REMARK   85  A    between atoms: _211  and  _212
REMARK   86  A    between atoms: _211  and  _214
REMARK   87  A    between atoms: _217  and  _219
REMARK   88  A    between atoms: _219  and  _220
REMARK   89  A    between atoms: _219  and  _222
REMARK   90  A    between atoms: _222  and  _223
REMARK   91  A    between atoms: _223  and  _224
REMARK   92  A    between atoms: _224  and  _225
REMARK   93  A    between atoms: _234  and  _236
REMARK   94  A    between atoms: _236  and  _237
REMARK   95  A    between atoms: _236  and  _239
REMARK   96  A    between atoms: _239  and  _240
REMARK   97  A    between atoms: _243  and  _245
REMARK   98  A    between atoms: _245  and  _246
REMARK   99  A    between atoms: _245  and  _248
REMARK  100  A    between atoms: _248  and  _249
REMARK  101  A    between atoms: _249  and  _250
REMARK  102  A    between atoms: _250  and  _251
REMARK  103  A    between atoms: _251  and  _252
REMARK  104  A    between atoms: _256  and  _258
REMARK  105  A    between atoms: _258  and  _259
REMARK  106  A    between atoms: _258  and  _261
REMARK  107  A    between atoms: _261  and  _262
REMARK  108  A    between atoms: _262  and  _263
REMARK  109  A    between atoms: _268  and  _270
REMARK  110  A    between atoms: _270  and  _271
REMARK  111  A    between atoms: _270  and  _273
REMARK  112  A    between atoms: _273  and  _274
REMARK  113  A    between atoms: _277  and  _279
REMARK  114  A    between atoms: _290  and  _293
REMARK  115  A    between atoms: _293  and  _294
REMARK  116  A    between atoms: _294  and  _295
REMARK  117  A    between atoms: _300  and  _303
REMARK  118  A    between atoms: _303  and  _304
REMARK  119  A    between atoms: _314  and  _315
REMARK  120  A    between atoms: _323  and  _325
REMARK  121  A    between atoms: _325  and  _326
REMARK  122  A    between atoms: _325  and  _328
REMARK  123  A    between atoms: _328  and  _329
REMARK  124  A    between atoms: _332  and  _334
REMARK  125  A    between atoms: _334  and  _335
REMARK  126  A    between atoms: _334  and  _337
REMARK  127  A    between atoms: _337  and  _338
REMARK  128  A    between atoms: _343  and  _344
REMARK  129  A    between atoms: _346  and  _348
REMARK  130  A    between atoms: _348  and  _349
REMARK  131  A    between atoms: _348  and  _351
REMARK  132  A    between atoms: _351  and  _352
REMARK  133  A    between atoms: _358  and  _360
REMARK  134  A    between atoms: _360  and  _361
REMARK  135  A    between atoms: _360  and  _363
REMARK  136  A    between atoms: _363  and  _364
REMARK  137  A    between atoms: _369  and  _370
REMARK  138  A    between atoms: _372  and  _374
REMARK  139  A    between atoms: _374  and  _375
REMARK  140  A    between atoms: _374  and  _377
REMARK  141  A    between atoms: _377  and  _378
REMARK  142  A    between atoms: _384  and  _386
REMARK  143  A    between atoms: _386  and  _387
REMARK  144  A    between atoms: _386  and  _389
REMARK  145  A    between atoms: _389  and  _390
REMARK  146  A    between atoms: _390  and  _391
REMARK  147  A    between atoms: _391  and  _392
REMARK  148  A    between atoms: _401  and  _403
REMARK  149  A    between atoms: _403  and  _404
REMARK  150  A    between atoms: _403  and  _406
REMARK  151  A    between atoms: _406  and  _407
REMARK  152  A    between atoms: _410  and  _412
REMARK  153  A    between atoms: _412  and  _413
REMARK  154  A    between atoms: _415  and  _417
REMARK  155  A    between atoms: _417  and  _418
REMARK  156  A    between atoms: _421  and  _423
REMARK  157  A    between atoms: _423  and  _424
REMARK  158  A    between atoms: _423  and  _426
REMARK  159  A    between atoms: _426  and  _427
REMARK  160  A    between atoms: _433  and  _434
REMARK  161  A    between atoms: _439  and  _441
REMARK  162  A    between atoms: _441  and  _442
REMARK  163  A    between atoms: _444  and  _446
REMARK  164  A    between atoms: _446  and  _447
REMARK  165  A    between atoms: _446  and  _449
REMARK  166  A    between atoms: _449  and  _450
REMARK  167  A    between atoms: _456  and  _458
REMARK  168  A    between atoms: _458  and  _459
REMARK  169  A    between atoms: _458  and  _461
REMARK  170  A    between atoms: _461  and  _462
REMARK  171  A    between atoms: _467  and  _469
REMARK  172  A    between atoms: _469  and  _470
REMARK  173  A    between atoms: _469  and  _472
REMARK  174  A    between atoms: _472  and  _473
REMARK  175  A    between atoms: _473  and  _474
REMARK  176  A    between atoms: _474  and  _475
REMARK  177  A    between atoms: _475  and  ZN_601
REMARK  178  A    between atoms: _477  and  _479
REMARK  179  A    between atoms: _479  and  _480
REMARK  180  A    between atoms: _479  and  _482
REMARK  181  A    between atoms: _482  and  _483
REMARK  182  A    between atoms: _483  and  _484
REMARK  183  A    between atoms: _484  and  _485
REMARK  184  A    between atoms: _485  and  _486
REMARK  185  A    between atoms: _490  and  _492
REMARK  186  A    between atoms: _492  and  _493
REMARK  187  A    between atoms: _492  and  _495
REMARK  188  A    between atoms: _495  and  _496
REMARK  189  A    between atoms: _501  and  _502
REMARK  190  A    between atoms: _504  and  _506
REMARK  191  A    between atoms: _506  and  _507
REMARK  192  A    between atoms: _506  and  _509
REMARK  193  A    between atoms: _509  and  _510
REMARK  194  A    between atoms: _515  and  _517
REMARK  195  A    between atoms: _517  and  _518
REMARK  196  A    between atoms: _521  and  _523
REMARK  197  A    between atoms: _523  and  _524
REMARK  198  A    between atoms: _523  and  _526
REMARK  199  A    between atoms: _526  and  _527
REMARK  200  A    between atoms: _530  and  _532
REMARK  201  A    between atoms: _532  and  _533
REMARK  202  A    between atoms: _532  and  _535
REMARK  203  A    between atoms: _538  and  _540
REMARK  204  A    between atoms: _540  and  _541
REMARK  205  A    between atoms: _540  and  _543
REMARK  206  A    between atoms: _543  and  _544
REMARK  207  A    between atoms: _544  and  _545
REMARK  208  A    between atoms: _548  and  _550
REMARK  209  A    between atoms: _550  and  _551
REMARK  210  A    between atoms: _550  and  _553
REMARK  211  A    between atoms: _553  and  _554
REMARK  212  A    between atoms: _559  and  _560
REMARK  213  A    between atoms: _562  and  _564
REMARK  214  A    between atoms: _564  and  _565
REMARK  215  A    between atoms: _564  and  _567
REMARK  216  A    between atoms: _567  and  _568
REMARK  217  A    between atoms: _568  and  _569
REMARK  218  A    between atoms: _569  and  _570
REMARK  219  A    between atoms: _579  and  _581
REMARK  220  A    between atoms: _581  and  _582
REMARK  221  A    between atoms: _581  and  _584
REMARK  222  A    between atoms: _584  and  _585
REMARK  223  A    between atoms: _590  and  _591
REMARK  224  A    between atoms: _593  and  _595
REMARK  225  A    between atoms: _595  and  _596
REMARK  226  A    between atoms: _595  and  _598
REMARK  227  A    between atoms: _598  and  _599
REMARK                            x       y       z     vdW  Elec       q    Type
REMARK                         _______ _______ _______ _____ _____    ______ ____
ROOT
ATOM      1  CB  GLN A   1     -25.991  27.518  -7.769  0.00  0.00    +0.035 C 
ENDROOT
BRANCH   1   2
ATOM      2  CA  GLN A   1     -27.511  27.607  -7.691  0.00  0.00    +0.134 C 
BRANCH   2   3
ATOM      3  N   GLN A   1     -27.961  27.726  -6.301  0.00  0.00    -0.239 NA
ATOM      4  H   GLN A   1     -27.363  27.351  -5.537  0.00  0.00    +0.142 HD
ENDBRANCH   2   3
BRANCH   2   5
ATOM      5  C   GLN A   1     -28.165  26.438  -8.416  0.00  0.00    +0.224 C 
ATOM      6  O   GLN A   1     -28.296  26.462  -9.642  0.00  0.00    -0.287 OA
ENDBRANCH   2   5
ENDBRANCH   1   2
BRANCH   1   7
ATOM      7  CG  GLN A   1     -25.369  26.271  -7.166  0.00  0.00    +0.087 C 
BRANCH   7   8
ATOM      8  CD  GLN A   1     -23.865  26.330  -7.206  0.00  0.00    +0.219 C 
ATOM      9  OE1 GLN A   1     -23.252  27.147  -6.524  0.00  0.00    -0.275 OA
ATOM     10  NE2 GLN A   1     -23.256  25.469  -8.016  0.00  0.00    -0.329 N 
ATOM     11 HE21 GLN A   1     -22.219  25.470  -8.091  0.00  0.00    +0.145 HD
ATOM     12 HE22 GLN A   1     -23.817  24.795  -8.575  0.00  0.00    +0.145 HD
ENDBRANCH   7   8
ENDBRANCH   1   7
TORSDOF 5
REMARK  Name = ../refined-set-2016/2xhm/2xhm_pocket.pdb
REMARK  227 active torsions:
REMARK  status: ('A' for Active; 'I' for Inactive)
REMARK    1  A    between atoms: _1  and  _3
REMARK    2  A    between atoms: _3  and  _4
REMARK    3  A    between atoms: _3  and  _6
REMARK    4  A    between atoms: _6  and  _7
REMARK    5  A    between atoms: _10  and  _12
REMARK    6  A    between atoms: _12  and  _13
REMARK    7  A    between atoms: _12  and  _15
REMARK    8  A    between atoms: _15  and  _16
REMARK    9  A    between atoms: _16  and  _17
REMARK   10  A    between atoms: _20  and  _22
REMARK   11  A    between atoms: _22  and  _23
REMARK   12  A    between atoms: _22  and  _25
REMARK   13  A    between atoms: _25  and  _26
REMARK   14  A    between atoms: _29  and  _31
REMARK   15  A    between atoms: _31  and  _32
REMARK   16  A    between atoms: _31  and  _34
REMARK   17  A    between atoms: _34  and  _35
REMARK   18  A    between atoms: _35  and  _36
REMARK   19  A    between atoms: _39  and  _41
REMARK   20  A    between atoms: _41  and  _42
REMARK   21  A    between atoms: _45  and  _47
REMARK   22  A    between atoms: _47  and  _48
REMARK   23  A    between atoms: _51  and  _53
REMARK   24  A    between atoms: _53  and  _54
REMARK   25  A    between atoms: _53  and  _56
REMARK   26  A    between atoms: _56  and  _57
REMARK   27  A    between atoms: _67  and  _69
REMARK   28  A    between atoms: _69  and  _70
REMARK   29  A    between atoms: _69  and  _72
REMARK   30  A    between atoms: _72  and  _73
REMARK   31  A    between atoms: _73  and  _74
REMARK   32  A    between atoms: _74  and  _75
REMARK   33  A    between atoms: _75  and  _76
REMARK   34  A    between atoms: _80  and  _82
REMARK   35  A    between atoms: _82  and  _83
REMARK   36  A    between atoms: _82  and  _85
REMARK   37  A    between atoms: _85  and  _86
REMARK   38  A    between atoms: _88  and  _90
REMARK   39  A    between atoms: _90  and  _91
REMARK   40  A    between atoms: _90  and  _93
REMARK   41  A    between atoms: _93  and  _94
REMARK   42  A    between atoms: _94  and  _95
REMARK   43  A    between atoms: _98  and  _100
REMARK   44  A    between atoms: _100  and  _101
REMARK   45  A    between atoms: _100  and  _103
REMARK   46  A    between atoms: _103  and  _104
REMARK   47  A    between atoms: _104  and  _105
REMARK   48  A    between atoms: _110  and  _112
REMARK   49  A    between atoms: _112  and  _113
REMARK   50  A    between atoms: _112  and  _115
REMARK   51  A    between atoms: _118  and  _120
REMARK   52  A    between atoms: _120  and  _121
REMARK   53  A    between atoms: _120  and  _123
REMARK   54  A    between atoms: _123  and  _124
REMARK   55  A    between atoms: _129  and  _131
REMARK   56  A    between atoms: _131  and  _132
REMARK   57  A    between atoms: _135  and  _137
REMARK   58  A    between atoms: _137  and  _138
REMARK   59  A    between atoms: _137  and  _140
REMARK   60  A    between atoms: _140  and  _141
REMARK   61  A    between atoms: _143  and  _145
REMARK   62  A    between atoms: _145  and  _146
REMARK   63  A    between atoms: _149  and  _151
REMARK   64  A    between atoms: _151  and  _152
REMARK   65  A    between atoms: _151  and  _154
REMARK   66  A    between atoms: _154  and  _155
REMARK   67  A    between atoms: _165  and  _167
REMARK   68  A    between atoms: _167  and  _168
REMARK   69  A    between atoms: _167  and  _170
REMARK   70  A    between atoms: _170  and  _171
REMARK   71  A    between atoms: _174  and  _176
REMARK   72  A    between atoms: _176  and  _177
REMARK   73  A    between atoms: _176  and  _179
REMARK   74  A    between atoms: _179  and  _180
REMARK   75  A    between atoms: _186  and  _188
REMARK   76  A    between atoms: _188  and  _189
REMARK   77  A    between atoms: _188  and  _191
REMARK   78  A    between atoms: _191  and  _192
REMARK   79  A    between atoms: _197  and  _198
REMARK   80  A    between atoms: _200  and  _202
REMARK   81  A    between atoms: _202  and  _203
REMARK   82  A    between atoms: _202  and  _205
REMARK   83  A    between atoms: _205  and  _206
REMARK   84  A    between atoms: _209  and  _211
REMARK   85  A    between atoms: _211  and  _212
REMARK   86  A    between atoms: _211  and  _214
REMARK   87  A    between atoms: _217  and  _219
REMARK   88  A    between atoms: _219  and  _220
REMARK   89  A    between atoms: _219  and  _222
REMARK   90  A    between atoms: _222  and  _223
REMARK   91  A    between atoms: _223  and  _224
REMARK   92  A    between atoms: _224  and  _225
REMARK   93  A    between atoms: _234  and  _236
REMARK   94  A    between atoms: _236  and  _237
REMARK   95  A    between atoms: _236  and  _239
REMARK   96  A    between atoms: _239  and  _240
REMARK   97  A    between atoms: _243  and  _245
REMARK   98  A    between atoms: _245  and  _246
REMARK   99  A    between atoms: _245  and  _248
REMARK  100  A    between atoms: _248  and  _249
REMARK  101  A    between atoms: _249  and  _250
REMARK  102  A    between atoms: _250  and  _251
REMARK  103  A    between atoms: _251  and  _252
REMARK  104  A    between atoms: _256  and  _258
REMARK  105  A    between atoms: _258  and  _259
REMARK  106  A    between atoms: _258  and  _261
REMARK  107  A    between atoms: _261  and  _262
REMARK  108  A    between atoms: _262  and  _263
REMARK  109  A    between atoms: _268  and  _270
REMARK  110  A    between atoms: _270  and  _271
REMARK  111  A    between atoms: _270  and  _273
REMARK  112  A    between atoms: _273  and  _274
REMARK  113  A    between atoms: _277  and  _279
REMARK  114  A    between atoms: _290  and  _293
REMARK  115  A    between atoms: _293  and  _294
REMARK  116  A    between atoms: _294  and  _295
REMARK  117  A    between atoms: _300  and  _303
REMARK  118  A    between atoms: _303  and  _304
REMARK  119  A    between atoms: _314  and  _315
REMARK  120  A    between atoms: _323  and  _325
REMARK  121  A    between atoms: _325  and  _326
REMARK  122  A    between atoms: _325  and  _328
REMARK  123  A    between atoms: _328  and  _329
REMARK  124  A    between atoms: _332  and  _334
REMARK  125  A    between atoms: _334  and  _335
REMARK  126  A    between atoms: _334  and  _337
REMARK  127  A    between atoms: _337  and  _338
REMARK  128  A    between atoms: _343  and  _344
REMARK  129  A    between atoms: _346  and  _348
REMARK  130  A    between atoms: _348  and  _349
REMARK  131  A    between atoms: _348  and  _351
REMARK  132  A    between atoms: _351  and  _352
REMARK  133  A    between atoms: _358  and  _360
REMARK  134  A    between atoms: _360  and  _361
REMARK  135  A    between atoms: _360  and  _363
REMARK  136  A    between atoms: _363  and  _364
REMARK  137  A    between atoms: _369  and  _370
REMARK  138  A    between atoms: _372  and  _374
REMARK  139  A    between atoms: _374  and  _375
REMARK  140  A    between atoms: _374  and  _377
REMARK  141  A    between atoms: _377  and  _378
REMARK  142  A    between atoms: _384  and  _386
REMARK  143  A    between atoms: _386  and  _387
REMARK  144  A    between atoms: _386  and  _389
REMARK  145  A    between atoms: _389  and  _390
REMARK  146  A    between atoms: _390  and  _391
REMARK  147  A    between atoms: _391  and  _392
REMARK  148  A    between atoms: _401  and  _403
REMARK  149  A    between atoms: _403  and  _404
REMARK  150  A    between atoms: _403  and  _406
REMARK  151  A    between atoms: _406  and  _407
REMARK  152  A    between atoms: _410  and  _412
REMARK  153  A    between atoms: _412  and  _413
REMARK  154  A    between atoms: _415  and  _417
REMARK  155  A    between atoms: _417  and  _418
REMARK  156  A    between atoms: _421  and  _423
REMARK  157  A    between atoms: _423  and  _424
REMARK  158  A    between atoms: _423  and  _426
REMARK  159  A    between atoms: _426  and  _427
REMARK  160  A    between atoms: _433  and  _434
REMARK  161  A    between atoms: _439  and  _441
REMARK  162  A    between atoms: _441  and  _442
REMARK  163  A    between atoms: _444  and  _446
REMARK  164  A    between atoms: _446  and  _447
REMARK  165  A    between atoms: _446  and  _449
REMARK  166  A    between atoms: _449  and  _450
REMARK  167  A    between atoms: _456  and  _458
REMARK  168  A    between atoms: _458  and  _459
REMARK  169  A    between atoms: _458  and  _461
REMARK  170  A    between atoms: _461  and  _462
REMARK  171  A    between atoms: _467  and  _469
REMARK  172  A    between atoms: _469  and  _470
REMARK  173  A    between atoms: _469  and  _472
REMARK  174  A    between atoms: _472  and  _473
REMARK  175  A    between atoms: _473  and  _474
REMARK  176  A    between atoms: _474  and  _475
REMARK  177  A    between atoms: _475  and  ZN_601
REMARK  178  A    between atoms: _477  and  _479
REMARK  179  A    between atoms: _479  and  _480
REMARK  180  A    between atoms: _479  and  _482
REMARK  181  A    between atoms: _482  and  _483
REMARK  182  A    between atoms: _483  and  _484
REMARK  183  A    between atoms: _484  and  _485
REMARK  184  A    between atoms: _485  and  _486
REMARK  185  A    between atoms: _490  and  _492
REMARK  186  A    between atoms: _492  and  _493
REMARK  187  A    between atoms: _492  and  _495
REMARK  188  A    between atoms: _495  and  _496
REMARK  189  A    between atoms: _501  and  _502
REMARK  190  A    between atoms: _504  and  _506
REMARK  191  A    between atoms: _506  and  _507
REMARK  192  A    between atoms: _506  and  _509
REMARK  193  A    between atoms: _509  and  _510
REMARK  194  A    between atoms: _515  and  _517
REMARK  195  A    between atoms: _517  and  _518
REMARK  196  A    between atoms: _521  and  _523
REMARK  197  A    between atoms: _523  and  _524
REMARK  198  A    between atoms: _523  and  _526
REMARK  199  A    between atoms: _526  and  _527
REMARK  200  A    between atoms: _530  and  _532
REMARK  201  A    between atoms: _532  and  _533
REMARK  202  A    between atoms: _532  and  _535
REMARK  203  A    between atoms: _538  and  _540
REMARK  204  A    between atoms: _540  and  _541
REMARK  205  A    between atoms: _540  and  _543
REMARK  206  A    between atoms: _543  and  _544
REMARK  207  A    between atoms: _544  and  _545
REMARK  208  A    between atoms: _548  and  _550
REMARK  209  A    between atoms: _550  and  _551
REMARK  210  A    between atoms: _550  and  _553
REMARK  211  A    between atoms: _553  and  _554
REMARK  212  A    between atoms: _559  and  _560
REMARK  213  A    between atoms: _562  and  _564
REMARK  214  A    between atoms: _564  and  _565
REMARK  215  A    between atoms: _564  and  _567
REMARK  216  A    between atoms: _567  and  _568
REMARK  217  A    between atoms: _568  and  _569
REMARK  218  A    between atoms: _569  and  _570
REMARK  219  A    between atoms: _579  and  _581
REMARK  220  A    between atoms: _581  and  _582
REMARK  221  A    between atoms: _581  and  _584
REMARK  222  A    between atoms: _584  and  _585
REMARK  223  A    between atoms: _590  and  _591
REMARK  224  A    between atoms: _593  and  _595
REMARK  225  A    between atoms: _595  and  _596
REMARK  226  A    between atoms: _595  and  _598
REMARK  227  A    between atoms: _598  and  _599
REMARK                            x       y       z     vdW  Elec       q    Type
REMARK                         _______ _______ _______ _____ _____    ______ ____
ROOT
ATOM      1  CA  VAL A   1      -9.528  23.104   0.020  0.00  0.00    +0.133 C 
ENDROOT
BRANCH   1   2
ATOM      2  CB  VAL A   1      -8.971  23.838  -1.236  0.00  0.00    +0.023 C 
ATOM      3  CG2 VAL A   1      -8.152  25.062  -0.826  0.00  0.00    +0.002 C 
ATOM      4  CG1 VAL A   1     -10.106  24.244  -2.175  0.00  0.00    +0.002 C 
ENDBRANCH   1   2
BRANCH   1   5
ATOM      5  N   VAL A   1      -8.459  22.665   0.906  0.00  0.00    -0.239 NA
ATOM      6  H   VAL A   1      -7.531  22.430   0.499  0.00  0.00    +0.142 HD
ENDBRANCH   1   5
BRANCH   1   7
ATOM      7  C   VAL A   1     -10.322  21.867  -0.390  0.00  0.00    +0.224 C 
ATOM      8  O   VAL A   1      -9.779  20.963  -1.031  0.00  0.00    -0.287 OA
ENDBRANCH   1   7
TORSDOF 3
REMARK  Name = ../refined-set-2016/2xhm/2xhm_pocket.pdb
REMARK  227 active torsions:
REMARK  status: ('A' for Active; 'I' for Inactive)
REMARK    1  A    between atoms: _1  and  _3
REMARK    2  A    between atoms: _3  and  _4
REMARK    3  A    between atoms: _3  and  _6
REMARK    4  A    between atoms: _6  and  _7
REMARK    5  A    between atoms: _10  and  _12
REMARK    6  A    between atoms: _12  and  _13
REMARK    7  A    between atoms: _12  and  _15
REMARK    8  A    between atoms: _15  and  _16
REMARK    9  A    between atoms: _16  and  _17
REMARK   10  A    between atoms: _20  and  _22
REMARK   11  A    between atoms: _22  and  _23
REMARK   12  A    between atoms: _22  and  _25
REMARK   13  A    between atoms: _25  and  _26
REMARK   14  A    between atoms: _29  and  _31
REMARK   15  A    between atoms: _31  and  _32
REMARK   16  A    between atoms: _31  and  _34
REMARK   17  A    between atoms: _34  and  _35
REMARK   18  A    between atoms: _35  and  _36
REMARK   19  A    between atoms: _39  and  _41
REMARK   20  A    between atoms: _41  and  _42
REMARK   21  A    between atoms: _45  and  _47
REMARK   22  A    between atoms: _47  and  _48
REMARK   23  A    between atoms: _51  and  _53
REMARK   24  A    between atoms: _53  and  _54
REMARK   25  A    between atoms: _53  and  _56
REMARK   26  A    between atoms: _56  and  _57
REMARK   27  A    between atoms: _67  and  _69
REMARK   28  A    between atoms: _69  and  _70
REMARK   29  A    between atoms: _69  and  _72
REMARK   30  A    between atoms: _72  and  _73
REMARK   31  A    between atoms: _73  and  _74
REMARK   32  A    between atoms: _74  and  _75
REMARK   33  A    between atoms: _75  and  _76
REMARK   34  A    between atoms: _80  and  _82
REMARK   35  A    between atoms: _82  and  _83
REMARK   36  A    between atoms: _82  and  _85
REMARK   37  A    between atoms: _85  and  _86
REMARK   38  A    between atoms: _88  and  _90
REMARK   39  A    between atoms: _90  and  _91
REMARK   40  A    between atoms: _90  and  _93
REMARK   41  A    between atoms: _93  and  _94
REMARK   42  A    between atoms: _94  and  _95
REMARK   43  A    between atoms: _98  and  _100
REMARK   44  A    between atoms: _100  and  _101
REMARK   45  A    between atoms: _100  and  _103
REMARK   46  A    between atoms: _103  and  _104
REMARK   47  A    between atoms: _104  and  _105
REMARK   48  A    between atoms: _110  and  _112
REMARK   49  A    between atoms: _112  and  _113
REMARK   50  A    between atoms: _112  and  _115
REMARK   51  A    between atoms: _118  and  _120
REMARK   52  A    between atoms: _120  and  _121
REMARK   53  A    between atoms: _120  and  _123
REMARK   54  A    between atoms: _123  and  _124
REMARK   55  A    between atoms: _129  and  _131
REMARK   56  A    between atoms: _131  and  _132
REMARK   57  A    between atoms: _135  and  _137
REMARK   58  A    between atoms: _137  and  _138
REMARK   59  A    between atoms: _137  and  _140
REMARK   60  A    between atoms: _140  and  _141
REMARK   61  A    between atoms: _143  and  _145
REMARK   62  A    between atoms: _145  and  _146
REMARK   63  A    between atoms: _149  and  _151
REMARK   64  A    between atoms: _151  and  _152
REMARK   65  A    between atoms: _151  and  _154
REMARK   66  A    between atoms: _154  and  _155
REMARK   67  A    between atoms: _165  and  _167
REMARK   68  A    between atoms: _167  and  _168
REMARK   69  A    between atoms: _167  and  _170
REMARK   70  A    between atoms: _170  and  _171
REMARK   71  A    between atoms: _174  and  _176
REMARK   72  A    between atoms: _176  and  _177
REMARK   73  A    between atoms: _176  and  _179
REMARK   74  A    between atoms: _179  and  _180
REMARK   75  A    between atoms: _186  and  _188
REMARK   76  A    between atoms: _188  and  _189
REMARK   77  A    between atoms: _188  and  _191
REMARK   78  A    between atoms: _191  and  _192
REMARK   79  A    between atoms: _197  and  _198
REMARK   80  A    between atoms: _200  and  _202
REMARK   81  A    between atoms: _202  and  _203
REMARK   82  A    between atoms: _202  and  _205
REMARK   83  A    between atoms: _205  and  _206
REMARK   84  A    between atoms: _209  and  _211
REMARK   85  A    between atoms: _211  and  _212
REMARK   86  A    between atoms: _211  and  _214
REMARK   87  A    between atoms: _217  and  _219
REMARK   88  A    between atoms: _219  and  _220
REMARK   89  A    between atoms: _219  and  _222
REMARK   90  A    between atoms: _222  and  _223
REMARK   91  A    between atoms: _223  and  _224
REMARK   92  A    between atoms: _224  and  _225
REMARK   93  A    between atoms: _234  and  _236
REMARK   94  A    between atoms: _236  and  _237
REMARK   95  A    between atoms: _236  and  _239
REMARK   96  A    between atoms: _239  and  _240
REMARK   97  A    between atoms: _243  and  _245
REMARK   98  A    between atoms: _245  and  _246
REMARK   99  A    between atoms: _245  and  _248
REMARK  100  A    between atoms: _248  and  _249
REMARK  101  A    between atoms: _249  and  _250
REMARK  102  A    between atoms: _250  and  _251
REMARK  103  A    between atoms: _251  and  _252
REMARK  104  A    between atoms: _256  and  _258
REMARK  105  A    between atoms: _258  and  _259
REMARK  106  A    between atoms: _258  and  _261
REMARK  107  A    between atoms: _261  and  _262
REMARK  108  A    between atoms: _262  and  _263
REMARK  109  A    between atoms: _268  and  _270
REMARK  110  A    between atoms: _270  and  _271
REMARK  111  A    between atoms: _270  and  _273
REMARK  112  A    between atoms: _273  and  _274
REMARK  113  A    between atoms: _277  and  _279
REMARK  114  A    between atoms: _290  and  _293
REMARK  115  A    between atoms: _293  and  _294
REMARK  116  A    between atoms: _294  and  _295
REMARK  117  A    between atoms: _300  and  _303
REMARK  118  A    between atoms: _303  and  _304
REMARK  119  A    between atoms: _314  and  _315
REMARK  120  A    between atoms: _323  and  _325
REMARK  121  A    between atoms: _325  and  _326
REMARK  122  A    between atoms: _325  and  _328
REMARK  123  A    between atoms: _328  and  _329
REMARK  124  A    between atoms: _332  and  _334
REMARK  125  A    between atoms: _334  and  _335
REMARK  126  A    between atoms: _334  and  _337
REMARK  127  A    between atoms: _337  and  _338
REMARK  128  A    between atoms: _343  and  _344
REMARK  129  A    between atoms: _346  and  _348
REMARK  130  A    between atoms: _348  and  _349
REMARK  131  A    between atoms: _348  and  _351
REMARK  132  A    between atoms: _351  and  _352
REMARK  133  A    between atoms: _358  and  _360
REMARK  134  A    between atoms: _360  and  _361
REMARK  135  A    between atoms: _360  and  _363
REMARK  136  A    between atoms: _363  and  _364
REMARK  137  A    between atoms: _369  and  _370
REMARK  138  A    between atoms: _372  and  _374
REMARK  139  A    between atoms: _374  and  _375
REMARK  140  A    between atoms: _374  and  _377
REMARK  141  A    between atoms: _377  and  _378
REMARK  142  A    between atoms: _384  and  _386
REMARK  143  A    between atoms: _386  and  _387
REMARK  144  A    between atoms: _386  and  _389
REMARK  145  A    between atoms: _389  and  _390
REMARK  146  A    between atoms: _390  and  _391
REMARK  147  A    between atoms: _391  and  _392
REMARK  148  A    between atoms: _401  and  _403
REMARK  149  A    between atoms: _403  and  _404
REMARK  150  A    between atoms: _403  and  _406
REMARK  151  A    between atoms: _406  and  _407
REMARK  152  A    between atoms: _410  and  _412
REMARK  153  A    between atoms: _412  and  _413
REMARK  154  A    between atoms: _415  and  _417
REMARK  155  A    between atoms: _417  and  _418
REMARK  156  A    between atoms: _421  and  _423
REMARK  157  A    between atoms: _423  and  _424
REMARK  158  A    between atoms: _423  and  _426
REMARK  159  A    between atoms: _426  and  _427
REMARK  160  A    between atoms: _433  and  _434
REMARK  161  A    between atoms: _439  and  _441
REMARK  162  A    between atoms: _441  and  _442
REMARK  163  A    between atoms: _444  and  _446
REMARK  164  A    between atoms: _446  and  _447
REMARK  165  A    between atoms: _446  and  _449
REMARK  166  A    between atoms: _449  and  _450
REMARK  167  A    between atoms: _456  and  _458
REMARK  168  A    between atoms: _458  and  _459
REMARK  169  A    between atoms: _458  and  _461
REMARK  170  A    between atoms: _461  and  _462
REMARK  171  A    between atoms: _467  and  _469
REMARK  172  A    between atoms: _469  and  _470
REMARK  173  A    between atoms: _469  and  _472
REMARK  174  A    between atoms: _472  and  _473
REMARK  175  A    between atoms: _473  and  _474
REMARK  176  A    between atoms: _474  and  _475
REMARK  177  A    between atoms: _475  and  ZN_601
REMARK  178  A    between atoms: _477  and  _479
REMARK  179  A    between atoms: _479  and  _480
REMARK  180  A    between atoms: _479  and  _482
REMARK  181  A    between atoms: _482  and  _483
REMARK  182  A    between atoms: _483  and  _484
REMARK  183  A    between atoms: _484  and  _485
REMARK  184  A    between atoms: _485  and  _486
REMARK  185  A    between atoms: _490  and  _492
REMARK  186  A    between atoms: _492  and  _493
REMARK  187  A    between atoms: _492  and  _495
REMARK  188  A    between atoms: _495  and  _496
REMARK  189  A    between atoms: _501  and  _502
REMARK  190  A    between atoms: _504  and  _506
REMARK  191  A    between atoms: _506  and  _507
REMARK  192  A    between atoms: _506  and  _509
REMARK  193  A    between atoms: _509  and  _510
REMARK  194  A    between atoms: _515  and  _517
REMARK  195  A    between atoms: _517  and  _518
REMARK  196  A    between atoms: _521  and  _523
REMARK  197  A    between atoms: _523  and  _524
REMARK  198  A    between atoms: _523  and  _526
REMARK  199  A    between atoms: _526  and  _527
REMARK  200  A    between atoms: _530  and  _532
REMARK  201  A    between atoms: _532  and  _533
REMARK  202  A    between atoms: _532  and  _535
REMARK  203  A    between atoms: _538  and  _540
REMARK  204  A    between atoms: _540  and  _541
REMARK  205  A    between atoms: _540  and  _543
REMARK  206  A    between atoms: _543  and  _544
REMARK  207  A    between atoms: _544  and  _545
REMARK  208  A    between atoms: _548  and  _550
REMARK  209  A    between atoms: _550  and  _551
REMARK  210  A    between atoms: _550  and  _553
REMARK  211  A    between atoms: _553  and  _554
REMARK  212  A    between atoms: _559  and  _560
REMARK  213  A    between atoms: _562  and  _564
REMARK  214  A    between atoms: _564  and  _565
REMARK  215  A    between atoms: _564  and  _567
REMARK  216  A    between atoms: _567  and  _568
REMARK  217  A    between atoms: _568  and  _569
REMARK  218  A    between atoms: _569  and  _570
REMARK  219  A    between atoms: _579  and  _581
REMARK  220  A    between atoms: _581  and  _582
REMARK  221  A    between atoms: _581  and  _584
REMARK  222  A    between atoms: _584  and  _585
REMARK  223  A    between atoms: _590  and  _591
REMARK  224  A    between atoms: _593  and  _595
REMARK  225  A    between atoms: _595  and  _596
REMARK  226  A    between atoms: _595  and  _598
REMARK  227  A    between atoms: _598  and  _599
REMARK                            x       y       z     vdW  Elec       q    Type
REMARK                         _______ _______ _______ _____ _____    ______ ____
ROOT
ATOM      1  CA  TRP A   5      -5.220  18.914 -12.016  0.00  0.00    +0.153 C 
ENDROOT
BRANCH   1   2
ATOM      2  C   TRP A   5      -4.410  18.279 -13.143  0.00  0.00    +0.241 C 
ATOM      3  O   TRP A   5      -4.307  17.049 -13.241  0.00  0.00    -0.273 OA
ATOM      4  N   ASP A   6      -3.853  19.135 -13.995  0.00  0.00    -0.297 N 
ATOM      5  H   ASP A   6      -4.054  20.150 -13.887  0.00  0.00    +0.150 HD
BRANCH   4   6
ATOM      6  CA  ASP A   6      -2.972  18.707 -15.073  0.00  0.00    +0.160 C 
BRANCH   6   7
ATOM      7  C   ASP A   6      -1.557  19.141 -14.714  0.00  0.00    +0.241 C 
ATOM      8  O   ASP A   6      -1.291  20.331 -14.542  0.00  0.00    -0.273 OA
ATOM      9  N   PHE A   7      -0.647  18.179 -14.596  0.00  0.00    -0.297 N 
ATOM     10  H   PHE A   7      -0.908  17.193 -14.799  0.00  0.00    +0.150 HD
BRANCH   9  11
ATOM     11  CA  PHE A   7       0.721  18.500 -14.182  0.00  0.00    +0.153 C 
BRANCH  11  12
ATOM     12  C   PHE A   7       1.683  18.708 -15.349  0.00  0.00    +0.241 C 
ATOM     13  O   PHE A   7       2.875  18.950 -15.141  0.00  0.00    -0.273 OA
ATOM     14  N   TYR A   8       1.142  18.627 -16.562  0.00  0.00    -0.298 N 
ATOM     15  H   TYR A   8       0.173  18.259 -16.643  0.00  0.00    +0.150 HD
BRANCH  14  16
ATOM     16  CA  TYR A   8       1.834  19.027 -17.791  0.00  0.00    +0.141 C 
BRANCH  16  17
ATOM     17  C   TYR A   8       3.048  18.173 -18.179  0.00  0.00    +0.227 C 
ATOM     18  O   TYR A   8       3.922  18.626 -18.922  0.00  0.00    -0.286 OA
ENDBRANCH  16  17
BRANCH  16  19
ATOM     19  CB  TYR A   8       2.194  20.521 -17.756  0.00  0.00    +0.054 C 
BRANCH  19  20
ATOM     20  CG  TYR A   8       1.000  21.435 -17.897  0.00  0.00    -0.020 A 
ATOM     21  CD2 TYR A   8       0.592  22.247 -16.841  0.00  0.00    -0.001 A 
ATOM     22  CE2 TYR A   8      -0.506  23.093 -16.967  0.00  0.00    +0.036 A 
ATOM     23  CZ  TYR A   8      -1.209  23.128 -18.161  0.00  0.00    +0.134 A 
ATOM     24  CE1 TYR A   8      -0.829  22.331 -19.227  0.00  0.00    +0.036 A 
ATOM     25  CD1 TYR A   8       0.277  21.490 -19.091  0.00  0.00    -0.001 A 
BRANCH  23  26
ATOM     26  OH  TYR A   8      -2.292  23.963 -18.292  0.00  0.00    -0.506 OA
ATOM     27  HH  TYR A   8      -2.429  24.459 -17.446  0.00  0.00    +0.292 HD
ENDBRANCH  23  26
ENDBRANCH  19  20
ENDBRANCH  16  19
ENDBRANCH  14  16
ENDBRANCH  11  12
BRANCH  11  28
ATOM     28  CB  PHE A   7       1.240  17.483 -13.159  0.00  0.00    +0.055 C 
BRANCH  28  29
ATOM     29  CG  PHE A   7       0.619  17.646 -11.808  0.00  0.00    -0.020 A 
ATOM     30  CD2 PHE A   7       1.302  18.295 -10.792  0.00  0.00    -0.004 A 
ATOM     31  CE2 PHE A   7       0.723  18.467  -9.543  0.00  0.00    -0.000 A 
ATOM     32  CZ  PHE A   7      -0.562  18.002  -9.310  0.00  0.00    -0.000 A 
ATOM     33  CE1 PHE A   7      -1.260  17.362 -10.323  0.00  0.00    -0.000 A 
ATOM     34  CD1 PHE A   7      -0.672  17.190 -11.565  0.00  0.00    -0.004 A 
ENDBRANCH  28  29
ENDBRANCH  11  28
ENDBRANCH   9  11
ENDBRANCH   6   7
BRANCH   6  35
ATOM     35  CB  ASP A   6      -3.412  19.333 -16.401  0.00  0.00    +0.143 C 
BRANCH  35  36
ATOM     36  CG  ASP A   6      -2.675  18.755 -17.602  0.00  0.00    +0.367 C 
ATOM     37  OD2 ASP A   6      -1.719  17.970 -17.411  0.00  0.00    -0.246 OA
ATOM     38  OD1 ASP A   6      -3.055  19.089 -18.746  0.00  0.00    -0.246 OA
ENDBRANCH  35  36
ENDBRANCH   6  35
ENDBRANCH   4   6
ENDBRANCH   1   2
BRANCH   1  40
ATOM     39  C   ALA A   4      -7.655  19.087 -11.851  0.00  0.00    +0.241 C 
ATOM     40  N   TRP A   5      -6.556  18.338 -11.897  0.00  0.00    -0.297 N 
ATOM     41  H   TRP A   5      -6.653  17.304 -11.846  0.00  0.00    +0.150 HD
ATOM     42  O   ALA A   4      -7.666  20.288 -12.146  0.00  0.00    -0.273 OA
BRANCH  39  43
ATOM     43  CA  ALA A   4      -8.941  18.380 -11.405  0.00  0.00    +0.149 C 
ATOM     44  CB  ALA A   4      -9.771  17.959 -12.603  0.00  0.00    +0.031 C 
BRANCH  43  47
ATOM     45  C   SER A   3     -10.055  18.982  -9.291  0.00  0.00    +0.243 C 
ATOM     46  O   SER A   3      -9.789  17.912  -8.732  0.00  0.00    -0.273 OA
ATOM     47  N   ALA A   4      -9.715  19.272 -10.547  0.00  0.00    -0.297 N 
ATOM     48  H   ALA A   4     -10.019  20.187 -10.938  0.00  0.00    +0.150 HD
BRANCH  45  49
ATOM     49  CA  SER A   3     -10.828  20.070  -8.559  0.00  0.00    +0.178 C 
BRANCH  49  51
ATOM     50  C   ALA A   2     -12.837  20.093  -7.183  0.00  0.00    +0.241 C 
ATOM     51  N   SER A   3     -11.671  19.533  -7.495  0.00  0.00    -0.295 N 
ATOM     52  H   SER A   3     -11.353  18.694  -6.969  0.00  0.00    +0.150 HD
ATOM     53  O   ALA A   2     -13.280  21.087  -7.765  0.00  0.00    -0.273 OA
BRANCH  50  54
ATOM     54  CA  ALA A   2     -13.609  19.449  -6.031  0.00  0.00    +0.149 C 
ATOM     55  CB  ALA A   2     -14.747  18.594  -6.562  0.00  0.00    +0.031 C 
BRANCH  54  58
ATOM     56  C   HIS A   1     -13.348  21.343  -4.480  0.00  0.00    +0.239 C 
ATOM     57  O   HIS A   1     -12.150  21.497  -4.731  0.00  0.00    -0.274 OA
ATOM     58  N   ALA A   2     -14.119  20.435  -5.074  0.00  0.00    -0.297 N 
ATOM     59  H   ALA A   2     -15.134  20.425  -4.848  0.00  0.00    +0.150 HD
BRANCH  56  60
ATOM     60  CA  HIS A   1     -14.036  22.209  -3.429  0.00  0.00    +0.151 C 
BRANCH  60  61
ATOM     61  N   HIS A   1     -13.338  22.058  -2.154  0.00  0.00    -0.238 NA
ATOM     62  H   HIS A   1     -12.892  22.877  -1.693  0.00  0.00    +0.142 HD
ENDBRANCH  60  61
BRANCH  60  63
ATOM     63  CB  HIS A   1     -14.134  23.663  -3.902  0.00  0.00    +0.074 C 
BRANCH  63  64
ATOM     64  CG  HIS A   1     -14.950  23.816  -5.149  0.00  0.00    +0.082 A 
ATOM     65  ND1 HIS A   1     -16.283  24.167  -5.130  0.00  0.00    -0.227 NA
ATOM     66  CE1 HIS A   1     -16.748  24.189  -6.366  0.00  0.00    +0.199 A 
ATOM     67  NE2 HIS A   1     -15.772  23.843  -7.186  0.00  0.00    -0.221 NA
ATOM     68  CD2 HIS A   1     -14.637  23.600  -6.450  0.00  0.00    +0.115 A 
ENDBRANCH  63  64
ENDBRANCH  60  63
ENDBRANCH  56  60
ENDBRANCH  54  58
ENDBRANCH  50  54
ENDBRANCH  49  51
BRANCH  49  69
ATOM     69  CB  SER A   3      -9.863  21.120  -8.005  0.00  0.00    +0.166 C 
BRANCH  69  70
ATOM     70  OG  SER A   3      -9.050  20.572  -6.983  0.00  0.00    -0.380 OA
ATOM     71  H   SER A   3      -9.624  20.247  -6.245  0.00  0.00    +0.211 HD
ENDBRANCH  69  70
ENDBRANCH  49  69
ENDBRANCH  45  49
ENDBRANCH  43  47
ENDBRANCH  39  43
ENDBRANCH   1  40
BRANCH   1  72
ATOM     72  CB  TRP A   5      -4.456  18.763 -10.700  0.00  0.00    +0.057 C 
BRANCH  72  73
ATOM     73  CG  TRP A   5      -5.067  19.480  -9.529  0.00  0.00    -0.002 A 
ATOM     74  CD2 TRP A   5      -4.475  20.537  -8.768  0.00  0.00    +0.013 A 
ATOM     75  CE2 TRP A   5      -5.397  20.890  -7.757  0.00  0.00    +0.056 A 
ATOM     76  CZ2 TRP A   5      -5.143  21.903  -6.832  0.00  0.00    +0.017 A 
ATOM     77  CH2 TRP A   5      -3.940  22.559  -6.925  0.00  0.00    +0.001 A 
ATOM     78  CZ3 TRP A   5      -3.000  22.230  -7.921  0.00  0.00    +0.000 A 
ATOM     79  NE1 TRP A   5      -6.491  20.080  -7.899  0.00  0.00    -0.352 N 
ATOM     80  HE1 TRP A   5      -7.341  20.103  -7.300  0.00  0.00    +0.166 HD
ATOM     81  CE3 TRP A   5      -3.254  21.222  -8.840  0.00  0.00    +0.001 A 
ATOM     82  CD1 TRP A   5      -6.286  19.234  -8.957  0.00  0.00    +0.068 A 
ENDBRANCH  72  73
ENDBRANCH   1  72
TORSDOF 29
REMARK  Name = ../refined-set-2016/2xhm/2xhm_pocket.pdb
REMARK  227 active torsions:
REMARK  status: ('A' for Active; 'I' for Inactive)
REMARK    1  A    between atoms: _1  and  _3
REMARK    2  A    between atoms: _3  and  _4
REMARK    3  A    between atoms: _3  and  _6
REMARK    4  A    between atoms: _6  and  _7
REMARK    5  A    between atoms: _10  and  _12
REMARK    6  A    between atoms: _12  and  _13
REMARK    7  A    between atoms: _12  and  _15
REMARK    8  A    between atoms: _15  and  _16
REMARK    9  A    between atoms: _16  and  _17
REMARK   10  A    between atoms: _20  and  _22
REMARK   11  A    between atoms: _22  and  _23
REMARK   12  A    between atoms: _22  and  _25
REMARK   13  A    between atoms: _25  and  _26
REMARK   14  A    between atoms: _29  and  _31
REMARK   15  A    between atoms: _31  and  _32
REMARK   16  A    between atoms: _31  and  _34
REMARK   17  A    between atoms: _34  and  _35
REMARK   18  A    between atoms: _35  and  _36
REMARK   19  A    between atoms: _39  and  _41
REMARK   20  A    between atoms: _41  and  _42
REMARK   21  A    between atoms: _45  and  _47
REMARK   22  A    between atoms: _47  and  _48
REMARK   23  A    between atoms: _51  and  _53
REMARK   24  A    between atoms: _53  and  _54
REMARK   25  A    between atoms: _53  and  _56
REMARK   26  A    between atoms: _56  and  _57
REMARK   27  A    between atoms: _67  and  _69
REMARK   28  A    between atoms: _69  and  _70
REMARK   29  A    between atoms: _69  and  _72
REMARK   30  A    between atoms: _72  and  _73
REMARK   31  A    between atoms: _73  and  _74
REMARK   32  A    between atoms: _74  and  _75
REMARK   33  A    between atoms: _75  and  _76
REMARK   34  A    between atoms: _80  and  _82
REMARK   35  A    between atoms: _82  and  _83
REMARK   36  A    between atoms: _82  and  _85
REMARK   37  A    between atoms: _85  and  _86
REMARK   38  A    between atoms: _88  and  _90
REMARK   39  A    between atoms: _90  and  _91
REMARK   40  A    between atoms: _90  and  _93
REMARK   41  A    between atoms: _93  and  _94
REMARK   42  A    between atoms: _94  and  _95
REMARK   43  A    between atoms: _98  and  _100
REMARK   44  A    between atoms: _100  and  _101
REMARK   45  A    between atoms: _100  and  _103
REMARK   46  A    between atoms: _103  and  _104
REMARK   47  A    between atoms: _104  and  _105
REMARK   48  A    between atoms: _110  and  _112
REMARK   49  A    between atoms: _112  and  _113
REMARK   50  A    between atoms: _112  and  _115
REMARK   51  A    between atoms: _118  and  _120
REMARK   52  A    between atoms: _120  and  _121
REMARK   53  A    between atoms: _120  and  _123
REMARK   54  A    between atoms: _123  and  _124
REMARK   55  A    between atoms: _129  and  _131
REMARK   56  A    between atoms: _131  and  _132
REMARK   57  A    between atoms: _135  and  _137
REMARK   58  A    between atoms: _137  and  _138
REMARK   59  A    between atoms: _137  and  _140
REMARK   60  A    between atoms: _140  and  _141
REMARK   61  A    between atoms: _143  and  _145
REMARK   62  A    between atoms: _145  and  _146
REMARK   63  A    between atoms: _149  and  _151
REMARK   64  A    between atoms: _151  and  _152
REMARK   65  A    between atoms: _151  and  _154
REMARK   66  A    between atoms: _154  and  _155
REMARK   67  A    between atoms: _165  and  _167
REMARK   68  A    between atoms: _167  and  _168
REMARK   69  A    between atoms: _167  and  _170
REMARK   70  A    between atoms: _170  and  _171
REMARK   71  A    between atoms: _174  and  _176
REMARK   72  A    between atoms: _176  and  _177
REMARK   73  A    between atoms: _176  and  _179
REMARK   74  A    between atoms: _179  and  _180
REMARK   75  A    between atoms: _186  and  _188
REMARK   76  A    between atoms: _188  and  _189
REMARK   77  A    between atoms: _188  and  _191
REMARK   78  A    between atoms: _191  and  _192
REMARK   79  A    between atoms: _197  and  _198
REMARK   80  A    between atoms: _200  and  _202
REMARK   81  A    between atoms: _202  and  _203
REMARK   82  A    between atoms: _202  and  _205
REMARK   83  A    between atoms: _205  and  _206
REMARK   84  A    between atoms: _209  and  _211
REMARK   85  A    between atoms: _211  and  _212
REMARK   86  A    between atoms: _211  and  _214
REMARK   87  A    between atoms: _217  and  _219
REMARK   88  A    between atoms: _219  and  _220
REMARK   89  A    between atoms: _219  and  _222
REMARK   90  A    between atoms: _222  and  _223
REMARK   91  A    between atoms: _223  and  _224
REMARK   92  A    between atoms: _224  and  _225
REMARK   93  A    between atoms: _234  and  _236
REMARK   94  A    between atoms: _236  and  _237
REMARK   95  A    between atoms: _236  and  _239
REMARK   96  A    between atoms: _239  and  _240
REMARK   97  A    between atoms: _243  and  _245
REMARK   98  A    between atoms: _245  and  _246
REMARK   99  A    between atoms: _245  and  _248
REMARK  100  A    between atoms: _248  and  _249
REMARK  101  A    between atoms: _249  and  _250
REMARK  102  A    between atoms: _250  and  _251
REMARK  103  A    between atoms: _251  and  _252
REMARK  104  A    between atoms: _256  and  _258
REMARK  105  A    between atoms: _258  and  _259
REMARK  106  A    between atoms: _258  and  _261
REMARK  107  A    between atoms: _261  and  _262
REMARK  108  A    between atoms: _262  and  _263
REMARK  109  A    between atoms: _268  and  _270
REMARK  110  A    between atoms: _270  and  _271
REMARK  111  A    between atoms: _270  and  _273
REMARK  112  A    between atoms: _273  and  _274
REMARK  113  A    between atoms: _277  and  _279
REMARK  114  A    between atoms: _290  and  _293
REMARK  115  A    between atoms: _293  and  _294
REMARK  116  A    between atoms: _294  and  _295
REMARK  117  A    between atoms: _300  and  _303
REMARK  118  A    between atoms: _303  and  _304
REMARK  119  A    between atoms: _314  and  _315
REMARK  120  A    between atoms: _323  and  _325
REMARK  121  A    between atoms: _325  and  _326
REMARK  122  A    between atoms: _325  and  _328
REMARK  123  A    between atoms: _328  and  _329
REMARK  124  A    between atoms: _332  and  _334
REMARK  125  A    between atoms: _334  and  _335
REMARK  126  A    between atoms: _334  and  _337
REMARK  127  A    between atoms: _337  and  _338
REMARK  128  A    between atoms: _343  and  _344
REMARK  129  A    between atoms: _346  and  _348
REMARK  130  A    between atoms: _348  and  _349
REMARK  131  A    between atoms: _348  and  _351
REMARK  132  A    between atoms: _351  and  _352
REMARK  133  A    between atoms: _358  and  _360
REMARK  134  A    between atoms: _360  and  _361
REMARK  135  A    between atoms: _360  and  _363
REMARK  136  A    between atoms: _363  and  _364
REMARK  137  A    between atoms: _369  and  _370
REMARK  138  A    between atoms: _372  and  _374
REMARK  139  A    between atoms: _374  and  _375
REMARK  140  A    between atoms: _374  and  _377
REMARK  141  A    between atoms: _377  and  _378
REMARK  142  A    between atoms: _384  and  _386
REMARK  143  A    between atoms: _386  and  _387
REMARK  144  A    between atoms: _386  and  _389
REMARK  145  A    between atoms: _389  and  _390
REMARK  146  A    between atoms: _390  and  _391
REMARK  147  A    between atoms: _391  and  _392
REMARK  148  A    between atoms: _401  and  _403
REMARK  149  A    between atoms: _403  and  _404
REMARK  150  A    between atoms: _403  and  _406
REMARK  151  A    between atoms: _406  and  _407
REMARK  152  A    between atoms: _410  and  _412
REMARK  153  A    between atoms: _412  and  _413
REMARK  154  A    between atoms: _415  and  _417
REMARK  155  A    between atoms: _417  and  _418
REMARK  156  A    between atoms: _421  and  _423
REMARK  157  A    between atoms: _423  and  _424
REMARK  158  A    between atoms: _423  and  _426
REMARK  159  A    between atoms: _426  and  _427
REMARK  160  A    between atoms: _433  and  _434
REMARK  161  A    between atoms: _439  and  _441
REMARK  162  A    between atoms: _441  and  _442
REMARK  163  A    between atoms: _444  and  _446
REMARK  164  A    between atoms: _446  and  _447
REMARK  165  A    between atoms: _446  and  _449
REMARK  166  A    between atoms: _449  and  _450
REMARK  167  A    between atoms: _456  and  _458
REMARK  168  A    between atoms: _458  and  _459
REMARK  169  A    between atoms: _458  and  _461
REMARK  170  A    between atoms: _461  and  _462
REMARK  171  A    between atoms: _467  and  _469
REMARK  172  A    between atoms: _469  and  _470
REMARK  173  A    between atoms: _469  and  _472
REMARK  174  A    between atoms: _472  and  _473
REMARK  175  A    between atoms: _473  and  _474
REMARK  176  A    between atoms: _474  and  _475
REMARK  177  A    between atoms: _475  and  ZN_601
REMARK  178  A    between atoms: _477  and  _479
REMARK  179  A    between atoms: _479  and  _480
REMARK  180  A    between atoms: _479  and  _482
REMARK  181  A    between atoms: _482  and  _483
REMARK  182  A    between atoms: _483  and  _484
REMARK  183  A    between atoms: _484  and  _485
REMARK  184  A    between atoms: _485  and  _486
REMARK  185  A    between atoms: _490  and  _492
REMARK  186  A    between atoms: _492  and  _493
REMARK  187  A    between atoms: _492  and  _495
REMARK  188  A    between atoms: _495  and  _496
REMARK  189  A    between atoms: _501  and  _502
REMARK  190  A    between atoms: _504  and  _506
REMARK  191  A    between atoms: _506  and  _507
REMARK  192  A    between atoms: _506  and  _509
REMARK  193  A    between atoms: _509  and  _510
REMARK  194  A    between atoms: _515  and  _517
REMARK  195  A    between atoms: _517  and  _518
REMARK  196  A    between atoms: _521  and  _523
REMARK  197  A    between atoms: _523  and  _524
REMARK  198  A    between atoms: _523  and  _526
REMARK  199  A    between atoms: _526  and  _527
REMARK  200  A    between atoms: _530  and  _532
REMARK  201  A    between atoms: _532  and  _533
REMARK  202  A    between atoms: _532  and  _535
REMARK  203  A    between atoms: _538  and  _540
REMARK  204  A    between atoms: _540  and  _541
REMARK  205  A    between atoms: _540  and  _543
REMARK  206  A    between atoms: _543  and  _544
REMARK  207  A    between atoms: _544  and  _545
REMARK  208  A    between atoms: _548  and  _550
REMARK  209  A    between atoms: _550  and  _551
REMARK  210  A    between atoms: _550  and  _553
REMARK  211  A    between atoms: _553  and  _554
REMARK  212  A    between atoms: _559  and  _560
REMARK  213  A    between atoms: _562  and  _564
REMARK  214  A    between atoms: _564  and  _565
REMARK  215  A    between atoms: _564  and  _567
REMARK  216  A    between atoms: _567  and  _568
REMARK  217  A    between atoms: _568  and  _569
REMARK  218  A    between atoms: _569  and  _570
REMARK  219  A    between atoms: _579  and  _581
REMARK  220  A    between atoms: _581  and  _582
REMARK  221  A    between atoms: _581  and  _584
REMARK  222  A    between atoms: _584  and  _585
REMARK  223  A    between atoms: _590  and  _591
REMARK  224  A    between atoms: _593  and  _595
REMARK  225  A    between atoms: _595  and  _596
REMARK  226  A    between atoms: _595  and  _598
REMARK  227  A    between atoms: _598  and  _599
REMARK                            x       y       z     vdW  Elec       q    Type
REMARK                         _______ _______ _______ _____ _____    ______ ____
ROOT
ATOM      1  C   ARG A   3      -6.334  14.844 -10.181  0.00  0.00    +0.241 C 
ATOM      2  N   ILE A   4      -7.098  14.266  -9.258  0.00  0.00    -0.297 N 
ATOM      3  H   ILE A   4      -6.832  13.325  -8.903  0.00  0.00    +0.150 HD
ATOM      4  O   ARG A   3      -6.653  15.872 -10.785  0.00  0.00    -0.273 OA
ENDROOT
BRANCH   2   5
ATOM      5  CA  ILE A   4      -8.292  14.903  -8.728  0.00  0.00    +0.149 C 
BRANCH   5   6
ATOM      6  C   ILE A   4      -8.144  15.021  -7.220  0.00  0.00    +0.241 C 
ATOM      7  O   ILE A   4      -7.593  14.129  -6.569  0.00  0.00    -0.273 OA
ATOM      8  N   LYS A   5      -8.588  16.151  -6.682  0.00  0.00    -0.297 N 
ATOM      9  H   LYS A   5      -8.797  16.958  -7.304  0.00  0.00    +0.150 HD
BRANCH   8  10
ATOM     10  CA  LYS A   5      -8.791  16.293  -5.251  0.00  0.00    +0.149 C 
BRANCH  10  11
ATOM     11  C   LYS A   5     -10.279  16.525  -5.030  0.00  0.00    +0.241 C 
ATOM     12  N   GLN A   6     -10.932  15.557  -4.389  0.00  0.00    -0.298 N 
ATOM     13  H   GLN A   6     -10.407  14.711  -4.090  0.00  0.00    +0.150 HD
ATOM     14  O   LYS A   5     -10.828  17.544  -5.465  0.00  0.00    -0.273 OA
BRANCH  12  15
ATOM     15  CA  GLN A   6     -12.360  15.643  -4.092  0.00  0.00    +0.137 C 
BRANCH  15  16
ATOM     16  C   GLN A   6     -12.645  15.036  -2.726  0.00  0.00    +0.227 C 
ATOM     17  O   GLN A   6     -12.200  13.928  -2.433  0.00  0.00    -0.286 OA
ENDBRANCH  15  16
BRANCH  15  18
ATOM     18  CB  GLN A   6     -13.174  14.920  -5.165  0.00  0.00    +0.037 C 
BRANCH  18  19
ATOM     19  CG  GLN A   6     -14.692  15.011  -4.981  0.00  0.00    +0.087 C 
BRANCH  19  20
ATOM     20  CD  GLN A   6     -15.470  14.519  -6.189  0.00  0.00    +0.219 C 
ATOM     21  NE2 GLN A   6     -16.745  14.201  -5.984  0.00  0.00    -0.329 N 
ATOM     22 HE21 GLN A   6     -17.157  14.292  -5.034  0.00  0.00    +0.145 HD
ATOM     23 HE22 GLN A   6     -17.330  13.861  -6.774  0.00  0.00    +0.145 HD
ATOM     24  OE1 GLN A   6     -14.937  14.429  -7.292  0.00  0.00    -0.275 OA
ENDBRANCH  19  20
ENDBRANCH  18  19
ENDBRANCH  15  18
ENDBRANCH  12  15
ENDBRANCH  10  11
BRANCH  10  25
ATOM     25  CB  LYS A   5      -7.955  17.441  -4.687  0.00  0.00    +0.029 C 
BRANCH  25  26
ATOM     26  CG  LYS A   5      -8.073  17.627  -3.173  0.00  0.00    +0.000 C 
BRANCH  26  27
ATOM     27  CD  LYS A   5      -6.883  18.389  -2.594  0.00  0.00    -0.024 C 
BRANCH  27  28
ATOM     28  CE  LYS A   5      -6.663  19.754  -3.250  0.00  0.00    -0.086 C 
BRANCH  28  29
ATOM     29  NZ  LYS A   5      -7.784  20.703  -3.009  0.00  0.00    +0.380 N 
ATOM     30  HZ1 LYS A   5      -7.892  20.857  -1.986  0.00  0.00    -0.089 HD
ATOM     31  HZ2 LYS A   5      -8.663  20.304  -3.396  0.00  0.00    -0.089 HD
ATOM     32  HZ3 LYS A   5      -7.577  21.608  -3.477  0.00  0.00    -0.089 HD
ENDBRANCH  28  29
ENDBRANCH  27  28
ENDBRANCH  26  27
ENDBRANCH  25  26
ENDBRANCH  10  25
ENDBRANCH   8  10
ENDBRANCH   5   6
BRANCH   5  33
ATOM     33  CB  ILE A   4      -9.581  14.125  -9.106  0.00  0.00    +0.027 C 
ATOM     34  CG2 ILE A   4     -10.739  14.441  -8.147  0.00  0.00    +0.002 C 
BRANCH  33  35
ATOM     35  CG1 ILE A   4      -9.987  14.458 -10.544  0.00  0.00    +0.002 C 
ATOM     36  CD1 ILE A   4     -11.004  13.524 -11.129  0.00  0.00    +0.000 C 
ENDBRANCH  33  35
ENDBRANCH   5  33
ENDBRANCH   2   5
BRANCH   1  37
ATOM     37  CA  ARG A   3      -4.994  14.167 -10.436  0.00  0.00    +0.149 C 
BRANCH  37  39
ATOM     38  C   VAL A   2      -3.799  13.530 -12.478  0.00  0.00    +0.241 C 
ATOM     39  N   ARG A   3      -4.458  14.448 -11.771  0.00  0.00    -0.297 N 
ATOM     40  H   ARG A   3      -4.596  15.394 -12.180  0.00  0.00    +0.150 HD
ATOM     41  O   VAL A   2      -3.693  12.354 -12.124  0.00  0.00    -0.273 OA
BRANCH  38  42
ATOM     42  CA  VAL A   2      -3.142  13.995 -13.775  0.00  0.00    +0.148 C 
BRANCH  42  44
ATOM     43  C   ASP A   1      -0.730  13.864 -14.249  0.00  0.00    +0.239 C 
ATOM     44  N   VAL A   2      -1.881  13.276 -13.933  0.00  0.00    -0.297 N 
ATOM     45  H   VAL A   2      -1.883  12.246 -13.790  0.00  0.00    +0.150 HD
ATOM     46  O   ASP A   1      -0.611  15.071 -14.473  0.00  0.00    -0.274 OA
BRANCH  43  47
ATOM     47  CA  ASP A   1       0.462  12.918 -14.354  0.00  0.00    +0.156 C 
BRANCH  47  48
ATOM     48  N   ASP A   1       0.566  12.456 -15.731  0.00  0.00    -0.238 NA
ATOM     49  H   ASP A   1       1.126  12.994 -16.422  0.00  0.00    +0.142 HD
ENDBRANCH  47  48
BRANCH  47  50
ATOM     50  CB  ASP A   1       1.756  13.562 -13.849  0.00  0.00    +0.140 C 
BRANCH  50  51
ATOM     51  CG  ASP A   1       1.735  13.816 -12.343  0.00  0.00    +0.367 C 
ATOM     52  OD2 ASP A   1       0.666  13.666 -11.710  0.00  0.00    -0.246 OA
ATOM     53  OD1 ASP A   1       2.789  14.176 -11.787  0.00  0.00    -0.246 OA
ENDBRANCH  50  51
ENDBRANCH  47  50
ENDBRANCH  43  47
ENDBRANCH  42  44
BRANCH  42  54
ATOM     54  CB  VAL A   2      -4.094  13.775 -14.977  0.00  0.00    +0.027 C 
ATOM     55  CG2 VAL A   2      -4.321  12.289 -15.249  0.00  0.00    +0.002 C 
ATOM     56  CG1 VAL A   2      -3.556  14.463 -16.222  0.00  0.00    +0.002 C 
ENDBRANCH  42  54
ENDBRANCH  38  42
ENDBRANCH  37  39
BRANCH  37  57
ATOM     57  CB  ARG A   3      -4.033  14.661  -9.357  0.00  0.00    +0.033 C 
BRANCH  57  58
ATOM     58  CG  ARG A   3      -2.740  13.917  -9.253  0.00  0.00    +0.045 C 
BRANCH  58  59
ATOM     59  CD  ARG A   3      -1.817  14.616  -8.285  0.00  0.00    +0.174 C 
BRANCH  59  60
ATOM     60  NE  ARG A   3      -0.450  14.583  -8.788  0.00  0.00    -0.265 N 
ATOM     61  CZ  ARG A   3       0.598  15.114  -8.170  0.00  0.00    +0.342 C 
ATOM     62  NH2 ARG A   3       0.460  15.728  -6.999  0.00  0.00    -0.292 N 
ATOM     63 HH21 ARG A   3       1.290  16.139  -6.526  0.00  0.00    +0.255 HD
ATOM     64 HH22 ARG A   3      -0.478  15.797  -6.555  0.00  0.00    +0.255 HD
ATOM     65  NH1 ARG A   3       1.794  15.024  -8.732  0.00  0.00    -0.292 N 
ATOM     66 HH11 ARG A   3       2.623  15.436  -8.258  0.00  0.00    +0.255 HD
ATOM     67 HH12 ARG A   3       1.904  14.542  -9.647  0.00  0.00    +0.255 HD
ATOM     68  HE  ARG A   3      -0.283  14.108  -9.698  0.00  0.00    +0.259 HD
ENDBRANCH  59  60
ENDBRANCH  58  59
ENDBRANCH  57  58
ENDBRANCH  37  57
ENDBRANCH   1  37
TORSDOF 29
REMARK  Name = ../refined-set-2016/2xhm/2xhm_pocket.pdb
REMARK  227 active torsions:
REMARK  status: ('A' for Active; 'I' for Inactive)
REMARK    1  A    between atoms: _1  and  _3
REMARK    2  A    between atoms: _3  and  _4
REMARK    3  A    between atoms: _3  and  _6
REMARK    4  A    between atoms: _6  and  _7
REMARK    5  A    between atoms: _10  and  _12
REMARK    6  A    between atoms: _12  and  _13
REMARK    7  A    between atoms: _12  and  _15
REMARK    8  A    between atoms: _15  and  _16
REMARK    9  A    between atoms: _16  and  _17
REMARK   10  A    between atoms: _20  and  _22
REMARK   11  A    between atoms: _22  and  _23
REMARK   12  A    between atoms: _22  and  _25
REMARK   13  A    between atoms: _25  and  _26
REMARK   14  A    between atoms: _29  and  _31
REMARK   15  A    between atoms: _31  and  _32
REMARK   16  A    between atoms: _31  and  _34
REMARK   17  A    between atoms: _34  and  _35
REMARK   18  A    between atoms: _35  and  _36
REMARK   19  A    between atoms: _39  and  _41
REMARK   20  A    between atoms: _41  and  _42
REMARK   21  A    between atoms: _45  and  _47
REMARK   22  A    between atoms: _47  and  _48
REMARK   23  A    between atoms: _51  and  _53
REMARK   24  A    between atoms: _53  and  _54
REMARK   25  A    between atoms: _53  and  _56
REMARK   26  A    between atoms: _56  and  _57
REMARK   27  A    between atoms: _67  and  _69
REMARK   28  A    between atoms: _69  and  _70
REMARK   29  A    between atoms: _69  and  _72
REMARK   30  A    between atoms: _72  and  _73
REMARK   31  A    between atoms: _73  and  _74
REMARK   32  A    between atoms: _74  and  _75
REMARK   33  A    between atoms: _75  and  _76
REMARK   34  A    between atoms: _80  and  _82
REMARK   35  A    between atoms: _82  and  _83
REMARK   36  A    between atoms: _82  and  _85
REMARK   37  A    between atoms: _85  and  _86
REMARK   38  A    between atoms: _88  and  _90
REMARK   39  A    between atoms: _90  and  _91
REMARK   40  A    between atoms: _90  and  _93
REMARK   41  A    between atoms: _93  and  _94
REMARK   42  A    between atoms: _94  and  _95
REMARK   43  A    between atoms: _98  and  _100
REMARK   44  A    between atoms: _100  and  _101
REMARK   45  A    between atoms: _100  and  _103
REMARK   46  A    between atoms: _103  and  _104
REMARK   47  A    between atoms: _104  and  _105
REMARK   48  A    between atoms: _110  and  _112
REMARK   49  A    between atoms: _112  and  _113
REMARK   50  A    between atoms: _112  and  _115
REMARK   51  A    between atoms: _118  and  _120
REMARK   52  A    between atoms: _120  and  _121
REMARK   53  A    between atoms: _120  and  _123
REMARK   54  A    between atoms: _123  and  _124
REMARK   55  A    between atoms: _129  and  _131
REMARK   56  A    between atoms: _131  and  _132
REMARK   57  A    between atoms: _135  and  _137
REMARK   58  A    between atoms: _137  and  _138
REMARK   59  A    between atoms: _137  and  _140
REMARK   60  A    between atoms: _140  and  _141
REMARK   61  A    between atoms: _143  and  _145
REMARK   62  A    between atoms: _145  and  _146
REMARK   63  A    between atoms: _149  and  _151
REMARK   64  A    between atoms: _151  and  _152
REMARK   65  A    between atoms: _151  and  _154
REMARK   66  A    between atoms: _154  and  _155
REMARK   67  A    between atoms: _165  and  _167
REMARK   68  A    between atoms: _167  and  _168
REMARK   69  A    between atoms: _167  and  _170
REMARK   70  A    between atoms: _170  and  _171
REMARK   71  A    between atoms: _174  and  _176
REMARK   72  A    between atoms: _176  and  _177
REMARK   73  A    between atoms: _176  and  _179
REMARK   74  A    between atoms: _179  and  _180
REMARK   75  A    between atoms: _186  and  _188
REMARK   76  A    between atoms: _188  and  _189
REMARK   77  A    between atoms: _188  and  _191
REMARK   78  A    between atoms: _191  and  _192
REMARK   79  A    between atoms: _197  and  _198
REMARK   80  A    between atoms: _200  and  _202
REMARK   81  A    between atoms: _202  and  _203
REMARK   82  A    between atoms: _202  and  _205
REMARK   83  A    between atoms: _205  and  _206
REMARK   84  A    between atoms: _209  and  _211
REMARK   85  A    between atoms: _211  and  _212
REMARK   86  A    between atoms: _211  and  _214
REMARK   87  A    between atoms: _217  and  _219
REMARK   88  A    between atoms: _219  and  _220
REMARK   89  A    between atoms: _219  and  _222
REMARK   90  A    between atoms: _222  and  _223
REMARK   91  A    between atoms: _223  and  _224
REMARK   92  A    between atoms: _224  and  _225
REMARK   93  A    between atoms: _234  and  _236
REMARK   94  A    between atoms: _236  and  _237
REMARK   95  A    between atoms: _236  and  _239
REMARK   96  A    between atoms: _239  and  _240
REMARK   97  A    between atoms: _243  and  _245
REMARK   98  A    between atoms: _245  and  _246
REMARK   99  A    between atoms: _245  and  _248
REMARK  100  A    between atoms: _248  and  _249
REMARK  101  A    between atoms: _249  and  _250
REMARK  102  A    between atoms: _250  and  _251
REMARK  103  A    between atoms: _251  and  _252
REMARK  104  A    between atoms: _256  and  _258
REMARK  105  A    between atoms: _258  and  _259
REMARK  106  A    between atoms: _258  and  _261
REMARK  107  A    between atoms: _261  and  _262
REMARK  108  A    between atoms: _262  and  _263
REMARK  109  A    between atoms: _268  and  _270
REMARK  110  A    between atoms: _270  and  _271
REMARK  111  A    between atoms: _270  and  _273
REMARK  112  A    between atoms: _273  and  _274
REMARK  113  A    between atoms: _277  and  _279
REMARK  114  A    between atoms: _290  and  _293
REMARK  115  A    between atoms: _293  and  _294
REMARK  116  A    between atoms: _294  and  _295
REMARK  117  A    between atoms: _300  and  _303
REMARK  118  A    between atoms: _303  and  _304
REMARK  119  A    between atoms: _314  and  _315
REMARK  120  A    between atoms: _323  and  _325
REMARK  121  A    between atoms: _325  and  _326
REMARK  122  A    between atoms: _325  and  _328
REMARK  123  A    between atoms: _328  and  _329
REMARK  124  A    between atoms: _332  and  _334
REMARK  125  A    between atoms: _334  and  _335
REMARK  126  A    between atoms: _334  and  _337
REMARK  127  A    between atoms: _337  and  _338
REMARK  128  A    between atoms: _343  and  _344
REMARK  129  A    between atoms: _346  and  _348
REMARK  130  A    between atoms: _348  and  _349
REMARK  131  A    between atoms: _348  and  _351
REMARK  132  A    between atoms: _351  and  _352
REMARK  133  A    between atoms: _358  and  _360
REMARK  134  A    between atoms: _360  and  _361
REMARK  135  A    between atoms: _360  and  _363
REMARK  136  A    between atoms: _363  and  _364
REMARK  137  A    between atoms: _369  and  _370
REMARK  138  A    between atoms: _372  and  _374
REMARK  139  A    between atoms: _374  and  _375
REMARK  140  A    between atoms: _374  and  _377
REMARK  141  A    between atoms: _377  and  _378
REMARK  142  A    between atoms: _384  and  _386
REMARK  143  A    between atoms: _386  and  _387
REMARK  144  A    between atoms: _386  and  _389
REMARK  145  A    between atoms: _389  and  _390
REMARK  146  A    between atoms: _390  and  _391
REMARK  147  A    between atoms: _391  and  _392
REMARK  148  A    between atoms: _401  and  _403
REMARK  149  A    between atoms: _403  and  _404
REMARK  150  A    between atoms: _403  and  _406
REMARK  151  A    between atoms: _406  and  _407
REMARK  152  A    between atoms: _410  and  _412
REMARK  153  A    between atoms: _412  and  _413
REMARK  154  A    between atoms: _415  and  _417
REMARK  155  A    between atoms: _417  and  _418
REMARK  156  A    between atoms: _421  and  _423
REMARK  157  A    between atoms: _423  and  _424
REMARK  158  A    between atoms: _423  and  _426
REMARK  159  A    between atoms: _426  and  _427
REMARK  160  A    between atoms: _433  and  _434
REMARK  161  A    between atoms: _439  and  _441
REMARK  162  A    between atoms: _441  and  _442
REMARK  163  A    between atoms: _444  and  _446
REMARK  164  A    between atoms: _446  and  _447
REMARK  165  A    between atoms: _446  and  _449
REMARK  166  A    between atoms: _449  and  _450
REMARK  167  A    between atoms: _456  and  _458
REMARK  168  A    between atoms: _458  and  _459
REMARK  169  A    between atoms: _458  and  _461
REMARK  170  A    between atoms: _461  and  _462
REMARK  171  A    between atoms: _467  and  _469
REMARK  172  A    between atoms: _469  and  _470
REMARK  173  A    between atoms: _469  and  _472
REMARK  174  A    between atoms: _472  and  _473
REMARK  175  A    between atoms: _473  and  _474
REMARK  176  A    between atoms: _474  and  _475
REMARK  177  A    between atoms: _475  and  ZN_601
REMARK  178  A    between atoms: _477  and  _479
REMARK  179  A    between atoms: _479  and  _480
REMARK  180  A    between atoms: _479  and  _482
REMARK  181  A    between atoms: _482  and  _483
REMARK  182  A    between atoms: _483  and  _484
REMARK  183  A    between atoms: _484  and  _485
REMARK  184  A    between atoms: _485  and  _486
REMARK  185  A    between atoms: _490  and  _492
REMARK  186  A    between atoms: _492  and  _493
REMARK  187  A    between atoms: _492  and  _495
REMARK  188  A    between atoms: _495  and  _496
REMARK  189  A    between atoms: _501  and  _502
REMARK  190  A    between atoms: _504  and  _506
REMARK  191  A    between atoms: _506  and  _507
REMARK  192  A    between atoms: _506  and  _509
REMARK  193  A    between atoms: _509  and  _510
REMARK  194  A    between atoms: _515  and  _517
REMARK  195  A    between atoms: _517  and  _518
REMARK  196  A    between atoms: _521  and  _523
REMARK  197  A    between atoms: _523  and  _524
REMARK  198  A    between atoms: _523  and  _526
REMARK  199  A    between atoms: _526  and  _527
REMARK  200  A    between atoms: _530  and  _532
REMARK  201  A    between atoms: _532  and  _533
REMARK  202  A    between atoms: _532  and  _535
REMARK  203  A    between atoms: _538  and  _540
REMARK  204  A    between atoms: _540  and  _541
REMARK  205  A    between atoms: _540  and  _543
REMARK  206  A    between atoms: _543  and  _544
REMARK  207  A    between atoms: _544  and  _545
REMARK  208  A    between atoms: _548  and  _550
REMARK  209  A    between atoms: _550  and  _551
REMARK  210  A    between atoms: _550  and  _553
REMARK  211  A    between atoms: _553  and  _554
REMARK  212  A    between atoms: _559  and  _560
REMARK  213  A    between atoms: _562  and  _564
REMARK  214  A    between atoms: _564  and  _565
REMARK  215  A    between atoms: _564  and  _567
REMARK  216  A    between atoms: _567  and  _568
REMARK  217  A    between atoms: _568  and  _569
REMARK  218  A    between atoms: _569  and  _570
REMARK  219  A    between atoms: _579  and  _581
REMARK  220  A    between atoms: _581  and  _582
REMARK  221  A    between atoms: _581  and  _584
REMARK  222  A    between atoms: _584  and  _585
REMARK  223  A    between atoms: _590  and  _591
REMARK  224  A    between atoms: _593  and  _595
REMARK  225  A    between atoms: _595  and  _596
REMARK  226  A    between atoms: _595  and  _598
REMARK  227  A    between atoms: _598  and  _599
REMARK                            x       y       z     vdW  Elec       q    Type
REMARK                         _______ _______ _______ _____ _____    ______ ____
ROOT
ATOM      1  CA  THR A   1     -19.521  15.500  -9.621  0.00  0.00    +0.160 C 
ENDROOT
BRANCH   1   2
ATOM      2  N   THR A   1     -20.731  14.709  -9.846  0.00  0.00    -0.237 NA
ATOM      3  H   THR A   1     -21.356  14.507  -9.040  0.00  0.00    +0.142 HD
ENDBRANCH   1   2
BRANCH   1   4
ATOM      4  CB  THR A   1     -19.439  16.007  -8.164  0.00  0.00    +0.134 C 
ATOM      5  CG2 THR A   1     -18.204  16.882  -7.950  0.00  0.00    +0.034 C 
BRANCH   4   6
ATOM      6  OG1 THR A   1     -20.610  16.777  -7.868  0.00  0.00    -0.383 OA
ATOM      7  HG1 THR A   1     -21.413  16.209  -7.979  0.00  0.00    +0.210 HD
ENDBRANCH   4   6
ENDBRANCH   1   4
BRANCH   1   8
ATOM      8  C   THR A   1     -18.248  14.725  -9.998  0.00  0.00    +0.227 C 
ATOM      9  O   THR A   1     -17.355  15.274 -10.647  0.00  0.00    -0.287 OA
ENDBRANCH   1   8
TORSDOF 4
REMARK  Name = ../refined-set-2016/2xhm/2xhm_pocket.pdb
REMARK  227 active torsions:
REMARK  status: ('A' for Active; 'I' for Inactive)
REMARK    1  A    between atoms: _1  and  _3
REMARK    2  A    between atoms: _3  and  _4
REMARK    3  A    between atoms: _3  and  _6
REMARK    4  A    between atoms: _6  and  _7
REMARK    5  A    between atoms: _10  and  _12
REMARK    6  A    between atoms: _12  and  _13
REMARK    7  A    between atoms: _12  and  _15
REMARK    8  A    between atoms: _15  and  _16
REMARK    9  A    between atoms: _16  and  _17
REMARK   10  A    between atoms: _20  and  _22
REMARK   11  A    between atoms: _22  and  _23
REMARK   12  A    between atoms: _22  and  _25
REMARK   13  A    between atoms: _25  and  _26
REMARK   14  A    between atoms: _29  and  _31
REMARK   15  A    between atoms: _31  and  _32
REMARK   16  A    between atoms: _31  and  _34
REMARK   17  A    between atoms: _34  and  _35
REMARK   18  A    between atoms: _35  and  _36
REMARK   19  A    between atoms: _39  and  _41
REMARK   20  A    between atoms: _41  and  _42
REMARK   21  A    between atoms: _45  and  _47
REMARK   22  A    between atoms: _47  and  _48
REMARK   23  A    between atoms: _51  and  _53
REMARK   24  A    between atoms: _53  and  _54
REMARK   25  A    between atoms: _53  and  _56
REMARK   26  A    between atoms: _56  and  _57
REMARK   27  A    between atoms: _67  and  _69
REMARK   28  A    between atoms: _69  and  _70
REMARK   29  A    between atoms: _69  and  _72
REMARK   30  A    between atoms: _72  and  _73
REMARK   31  A    between atoms: _73  and  _74
REMARK   32  A    between atoms: _74  and  _75
REMARK   33  A    between atoms: _75  and  _76
REMARK   34  A    between atoms: _80  and  _82
REMARK   35  A    between atoms: _82  and  _83
REMARK   36  A    between atoms: _82  and  _85
REMARK   37  A    between atoms: _85  and  _86
REMARK   38  A    between atoms: _88  and  _90
REMARK   39  A    between atoms: _90  and  _91
REMARK   40  A    between atoms: _90  and  _93
REMARK   41  A    between atoms: _93  and  _94
REMARK   42  A    between atoms: _94  and  _95
REMARK   43  A    between atoms: _98  and  _100
REMARK   44  A    between atoms: _100  and  _101
REMARK   45  A    between atoms: _100  and  _103
REMARK   46  A    between atoms: _103  and  _104
REMARK   47  A    between atoms: _104  and  _105
REMARK   48  A    between atoms: _110  and  _112
REMARK   49  A    between atoms: _112  and  _113
REMARK   50  A    between atoms: _112  and  _115
REMARK   51  A    between atoms: _118  and  _120
REMARK   52  A    between atoms: _120  and  _121
REMARK   53  A    between atoms: _120  and  _123
REMARK   54  A    between atoms: _123  and  _124
REMARK   55  A    between atoms: _129  and  _131
REMARK   56  A    between atoms: _131  and  _132
REMARK   57  A    between atoms: _135  and  _137
REMARK   58  A    between atoms: _137  and  _138
REMARK   59  A    between atoms: _137  and  _140
REMARK   60  A    between atoms: _140  and  _141
REMARK   61  A    between atoms: _143  and  _145
REMARK   62  A    between atoms: _145  and  _146
REMARK   63  A    between atoms: _149  and  _151
REMARK   64  A    between atoms: _151  and  _152
REMARK   65  A    between atoms: _151  and  _154
REMARK   66  A    between atoms: _154  and  _155
REMARK   67  A    between atoms: _165  and  _167
REMARK   68  A    between atoms: _167  and  _168
REMARK   69  A    between atoms: _167  and  _170
REMARK   70  A    between atoms: _170  and  _171
REMARK   71  A    between atoms: _174  and  _176
REMARK   72  A    between atoms: _176  and  _177
REMARK   73  A    between atoms: _176  and  _179
REMARK   74  A    between atoms: _179  and  _180
REMARK   75  A    between atoms: _186  and  _188
REMARK   76  A    between atoms: _188  and  _189
REMARK   77  A    between atoms: _188  and  _191
REMARK   78  A    between atoms: _191  and  _192
REMARK   79  A    between atoms: _197  and  _198
REMARK   80  A    between atoms: _200  and  _202
REMARK   81  A    between atoms: _202  and  _203
REMARK   82  A    between atoms: _202  and  _205
REMARK   83  A    between atoms: _205  and  _206
REMARK   84  A    between atoms: _209  and  _211
REMARK   85  A    between atoms: _211  and  _212
REMARK   86  A    between atoms: _211  and  _214
REMARK   87  A    between atoms: _217  and  _219
REMARK   88  A    between atoms: _219  and  _220
REMARK   89  A    between atoms: _219  and  _222
REMARK   90  A    between atoms: _222  and  _223
REMARK   91  A    between atoms: _223  and  _224
REMARK   92  A    between atoms: _224  and  _225
REMARK   93  A    between atoms: _234  and  _236
REMARK   94  A    between atoms: _236  and  _237
REMARK   95  A    between atoms: _236  and  _239
REMARK   96  A    between atoms: _239  and  _240
REMARK   97  A    between atoms: _243  and  _245
REMARK   98  A    between atoms: _245  and  _246
REMARK   99  A    between atoms: _245  and  _248
REMARK  100  A    between atoms: _248  and  _249
REMARK  101  A    between atoms: _249  and  _250
REMARK  102  A    between atoms: _250  and  _251
REMARK  103  A    between atoms: _251  and  _252
REMARK  104  A    between atoms: _256  and  _258
REMARK  105  A    between atoms: _258  and  _259
REMARK  106  A    between atoms: _258  and  _261
REMARK  107  A    between atoms: _261  and  _262
REMARK  108  A    between atoms: _262  and  _263
REMARK  109  A    between atoms: _268  and  _270
REMARK  110  A    between atoms: _270  and  _271
REMARK  111  A    between atoms: _270  and  _273
REMARK  112  A    between atoms: _273  and  _274
REMARK  113  A    between atoms: _277  and  _279
REMARK  114  A    between atoms: _290  and  _293
REMARK  115  A    between atoms: _293  and  _294
REMARK  116  A    between atoms: _294  and  _295
REMARK  117  A    between atoms: _300  and  _303
REMARK  118  A    between atoms: _303  and  _304
REMARK  119  A    between atoms: _314  and  _315
REMARK  120  A    between atoms: _323  and  _325
REMARK  121  A    between atoms: _325  and  _326
REMARK  122  A    between atoms: _325  and  _328
REMARK  123  A    between atoms: _328  and  _329
REMARK  124  A    between atoms: _332  and  _334
REMARK  125  A    between atoms: _334  and  _335
REMARK  126  A    between atoms: _334  and  _337
REMARK  127  A    between atoms: _337  and  _338
REMARK  128  A    between atoms: _343  and  _344
REMARK  129  A    between atoms: _346  and  _348
REMARK  130  A    between atoms: _348  and  _349
REMARK  131  A    between atoms: _348  and  _351
REMARK  132  A    between atoms: _351  and  _352
REMARK  133  A    between atoms: _358  and  _360
REMARK  134  A    between atoms: _360  and  _361
REMARK  135  A    between atoms: _360  and  _363
REMARK  136  A    between atoms: _363  and  _364
REMARK  137  A    between atoms: _369  and  _370
REMARK  138  A    between atoms: _372  and  _374
REMARK  139  A    between atoms: _374  and  _375
REMARK  140  A    between atoms: _374  and  _377
REMARK  141  A    between atoms: _377  and  _378
REMARK  142  A    between atoms: _384  and  _386
REMARK  143  A    between atoms: _386  and  _387
REMARK  144  A    between atoms: _386  and  _389
REMARK  145  A    between atoms: _389  and  _390
REMARK  146  A    between atoms: _390  and  _391
REMARK  147  A    between atoms: _391  and  _392
REMARK  148  A    between atoms: _401  and  _403
REMARK  149  A    between atoms: _403  and  _404
REMARK  150  A    between atoms: _403  and  _406
REMARK  151  A    between atoms: _406  and  _407
REMARK  152  A    between atoms: _410  and  _412
REMARK  153  A    between atoms: _412  and  _413
REMARK  154  A    between atoms: _415  and  _417
REMARK  155  A    between atoms: _417  and  _418
REMARK  156  A    between atoms: _421  and  _423
REMARK  157  A    between atoms: _423  and  _424
REMARK  158  A    between atoms: _423  and  _426
REMARK  159  A    between atoms: _426  and  _427
REMARK  160  A    between atoms: _433  and  _434
REMARK  161  A    between atoms: _439  and  _441
REMARK  162  A    between atoms: _441  and  _442
REMARK  163  A    between atoms: _444  and  _446
REMARK  164  A    between atoms: _446  and  _447
REMARK  165  A    between atoms: _446  and  _449
REMARK  166  A    between atoms: _449  and  _450
REMARK  167  A    between atoms: _456  and  _458
REMARK  168  A    between atoms: _458  and  _459
REMARK  169  A    between atoms: _458  and  _461
REMARK  170  A    between atoms: _461  and  _462
REMARK  171  A    between atoms: _467  and  _469
REMARK  172  A    between atoms: _469  and  _470
REMARK  173  A    between atoms: _469  and  _472
REMARK  174  A    between atoms: _472  and  _473
REMARK  175  A    between atoms: _473  and  _474
REMARK  176  A    between atoms: _474  and  _475
REMARK  177  A    between atoms: _475  and  ZN_601
REMARK  178  A    between atoms: _477  and  _479
REMARK  179  A    between atoms: _479  and  _480
REMARK  180  A    between atoms: _479  and  _482
REMARK  181  A    between atoms: _482  and  _483
REMARK  182  A    between atoms: _483  and  _484
REMARK  183  A    between atoms: _484  and  _485
REMARK  184  A    between atoms: _485  and  _486
REMARK  185  A    between atoms: _490  and  _492
REMARK  186  A    between atoms: _492  and  _493
REMARK  187  A    between atoms: _492  and  _495
REMARK  188  A    between atoms: _495  and  _496
REMARK  189  A    between atoms: _501  and  _502
REMARK  190  A    between atoms: _504  and  _506
REMARK  191  A    between atoms: _506  and  _507
REMARK  192  A    between atoms: _506  and  _509
REMARK  193  A    between atoms: _509  and  _510
REMARK  194  A    between atoms: _515  and  _517
REMARK  195  A    between atoms: _517  and  _518
REMARK  196  A    between atoms: _521  and  _523
REMARK  197  A    between atoms: _523  and  _524
REMARK  198  A    between atoms: _523  and  _526
REMARK  199  A    between atoms: _526  and  _527
REMARK  200  A    between atoms: _530  and  _532
REMARK  201  A    between atoms: _532  and  _533
REMARK  202  A    between atoms: _532  and  _535
REMARK  203  A    between atoms: _538  and  _540
REMARK  204  A    between atoms: _540  and  _541
REMARK  205  A    between atoms: _540  and  _543
REMARK  206  A    between atoms: _543  and  _544
REMARK  207  A    between atoms: _544  and  _545
REMARK  208  A    between atoms: _548  and  _550
REMARK  209  A    between atoms: _550  and  _551
REMARK  210  A    between atoms: _550  and  _553
REMARK  211  A    between atoms: _553  and  _554
REMARK  212  A    between atoms: _559  and  _560
REMARK  213  A    between atoms: _562  and  _564
REMARK  214  A    between atoms: _564  and  _565
REMARK  215  A    between atoms: _564  and  _567
REMARK  216  A    between atoms: _567  and  _568
REMARK  217  A    between atoms: _568  and  _569
REMARK  218  A    between atoms: _569  and  _570
REMARK  219  A    between atoms: _579  and  _581
REMARK  220  A    between atoms: _581  and  _582
REMARK  221  A    between atoms: _581  and  _584
REMARK  222  A    between atoms: _584  and  _585
REMARK  223  A    between atoms: _590  and  _591
REMARK  224  A    between atoms: _593  and  _595
REMARK  225  A    between atoms: _595  and  _596
REMARK  226  A    between atoms: _595  and  _598
REMARK  227  A    between atoms: _598  and  _599
REMARK                            x       y       z     vdW  Elec       q    Type
REMARK                         _______ _______ _______ _____ _____    ______ ____
ROOT
ATOM      1  CA  HIS A   9     -13.684  22.018 -20.428  0.00  0.00    +0.000 C 
ENDROOT
BRANCH   1   2
ATOM      2  N   HIS A   9     -14.296  22.819 -21.482  0.00  0.00    +0.000 N 
ATOM      3  H   HIS A   9     -13.997  23.807 -21.606  0.00  0.00    +0.000 HD
ATOM      4  C   PHE A   8     -15.226  22.318 -22.287  0.00  0.00    +0.000 C 
ATOM      5  O   PHE A   8     -15.672  21.182 -22.167  0.00  0.00    +0.000 OA
BRANCH   4   6
ATOM      6  CA  PHE A   8     -15.738  23.232 -23.393  0.00  0.00    +0.000 C 
BRANCH   6   7
ATOM      7  N   PHE A   8     -15.956  24.603 -22.913  0.00  0.00    +0.000 N 
ATOM      8  C   GLY A   7     -16.791  24.878 -21.910  0.00  0.00    +0.000 C 
ATOM      9  O   GLY A   7     -17.465  24.015 -21.351  0.00  0.00    +0.000 OA
ATOM     10  H   PHE A   8     -15.443  25.384 -23.370  0.00  0.00    +0.000 HD
BRANCH   8  11
ATOM     11  CA  GLY A   7     -16.898  26.335 -21.478  0.00  0.00    +0.000 C 
BRANCH  11  12
ATOM     12  N   GLY A   7     -15.639  27.085 -21.486  0.00  0.00    +0.000 N 
ATOM     13  C   PRO A   6     -14.608  26.748 -20.712  0.00  0.00    +0.000 C 
ATOM     14  O   PRO A   6     -14.646  25.814 -19.907  0.00  0.00    +0.000 OA
ATOM     15  H   GLY A   7     -15.547  27.907 -22.116  0.00  0.00    +0.000 HD
BRANCH  13  16
ATOM     16  CA  PRO A   6     -13.313  27.551 -20.875  0.00  0.00    +0.000 C 
ATOM     17  CB  PRO A   6     -13.314  28.803 -19.995  0.00  0.00    +0.000 C 
ATOM     18  CG  PRO A   6     -12.431  29.754 -20.739  0.00  0.00    +0.000 C 
ATOM     19  CD  PRO A   6     -12.784  29.533 -22.183  0.00  0.00    +0.000 C 
ATOM     20  N   PRO A   6     -13.109  28.094 -22.225  0.00  0.00    +0.000 N 
ATOM     21  C   UNK A   5     -13.100  27.211 -23.247  0.00  0.00    +0.000 C 
ATOM     22  O   UNK A   5     -13.319  26.008 -23.076  0.00  0.00    +0.000 OA
BRANCH  21  23
ATOM     23  C   UNK A   5     -12.746  27.718 -24.658  0.00  0.00    +0.000 C 
BRANCH  23  24
ATOM     24  N   UNK A   5     -12.514  26.551 -25.515  0.00  0.00    +0.000 N 
ATOM     25  H   UNK A   5     -13.091  25.699 -25.362  0.00  0.00    +0.000 HD
ATOM     26  C   ALA A   4     -11.597  26.535 -26.480  0.00  0.00    +0.000 C 
ATOM     27  O   ALA A   4     -11.175  27.551 -27.029  0.00  0.00    +0.000 OA
BRANCH  26  28
ATOM     28  CA  ALA A   4     -11.099  25.148 -26.903  0.00  0.00    +0.000 C 
ATOM     29  CB  ALA A   4     -12.107  24.456 -27.800  0.00  0.00    +0.000 C 
BRANCH  28  30
ATOM     30  N   ALA A   4     -10.836  24.339 -25.709  0.00  0.00    +0.000 N 
ATOM     31  C   GLY A   3     -10.008  24.752 -24.750  0.00  0.00    +0.000 C 
ATOM     32  O   GLY A   3      -9.345  25.787 -24.836  0.00  0.00    +0.000 OA
ATOM     33  H   ALA A   4     -11.308  23.418 -25.608  0.00  0.00    +0.000 HD
BRANCH  31  34
ATOM     34  CA  GLY A   3      -9.908  23.873 -23.516  0.00  0.00    +0.000 C 
BRANCH  34  35
ATOM     35  N   GLY A   3      -8.634  24.006 -22.802  0.00  0.00    +0.000 N 
ATOM     36  H   GLY A   3      -8.629  24.412 -21.844  0.00  0.00    +0.000 HD
ATOM     37  C   THR A   2      -7.485  23.620 -23.350  0.00  0.00    +0.000 C 
ATOM     38  O   THR A   2      -7.419  23.138 -24.479  0.00  0.00    +0.000 OA
BRANCH  37  39
ATOM     39  CA  THR A   2      -6.217  23.773 -22.518  0.00  0.00    +0.000 C 
BRANCH  39  40
ATOM     40  N   THR A   2      -5.146  23.102 -23.250  0.00  0.00    +0.000 N 
ATOM     41  C   UNK A   1      -3.967  22.790 -22.724  0.00  0.00    +0.000 C 
ATOM     42  O   UNK A   1      -3.678  22.974 -21.536  0.00  0.00    +0.000 OA
ATOM     43  H   THR A   2      -5.317  22.853 -24.245  0.00  0.00    +0.000 HD
BRANCH  41  44
ATOM     44  C   UNK A   1      -2.980  22.169 -23.711  0.00  0.00    +0.000 C 
BRANCH  44  45
ATOM     45  N   UNK A   1      -2.534  23.153 -24.703  0.00  0.00    +0.000 NA
ATOM     46  H   UNK A   1      -1.658  23.685 -24.524  0.00  0.00    +0.000 HD
ENDBRANCH  44  45
BRANCH  44  47
ATOM     47  C   UNK A   1      -1.783  21.522 -22.997  0.00  0.00    +0.000 C 
BRANCH  47  48
ATOM     48  C   UNK A   1      -0.977  20.576 -23.889  0.00  0.00    +0.000 C 
BRANCH  48  49
ATOM     49  C   UNK A   1       0.276  20.039 -23.203  0.00  0.00    +0.000 C 
BRANCH  49  50
ATOM     50  N   UNK A   1      -0.033  19.091 -22.133  0.00  0.00    +0.330 N 
ATOM     51  C   UNK A   1       0.875  18.381 -21.465  0.00  0.00    +0.000 C 
ATOM     52  N   UNK A   1       0.485  17.546 -20.508  0.00  0.00    +0.330 N 
ATOM     53  H   UNK A   1       1.190  16.990 -19.984  0.00  0.00    +0.000 HD
ATOM     54  H   UNK A   1      -0.526  17.449 -20.283  0.00  0.00    +0.000 HD
ATOM     55  N   UNK A   1       2.170  18.495 -21.750  0.00  0.00    +0.330 N 
ATOM     56  H   UNK A   1       2.870  17.936 -21.222  0.00  0.00    +0.000 HD
ATOM     57  H   UNK A   1       2.482  19.143 -22.501  0.00  0.00    +0.000 HD
ATOM     58  H   UNK A   1      -1.032  18.962 -21.875  0.00  0.00    +0.000 HD
ENDBRANCH  49  50
ENDBRANCH  48  49
ENDBRANCH  47  48
ENDBRANCH  44  47
ENDBRANCH  41  44
ENDBRANCH  39  40
BRANCH  39  59
ATOM     59  CB  THR A   2      -5.879  25.265 -22.242  0.00  0.00    +0.000 C 
ATOM     60  CG2 THR A   2      -5.817  26.074 -23.530  0.00  0.00    +0.000 C 
BRANCH  59  61
ATOM     61  OG1 THR A   2      -6.859  25.830 -21.365  0.00  0.00    +0.000 OA
ATOM     62  HG1 THR A   2      -6.638  26.780 -21.193  0.00  0.00    +0.000 HD
ENDBRANCH  59  61
ENDBRANCH  39  59
ENDBRANCH  37  39
ENDBRANCH  34  35
ENDBRANCH  31  34
ENDBRANCH  28  30
ENDBRANCH  26  28
ENDBRANCH  23  24
BRANCH  23  63
ATOM     63  C   UNK A   5     -13.757  28.721 -25.269  0.00  0.00    +0.000 C 
BRANCH  63  64
ATOM     64  C   UNK A   5     -15.204  28.258 -25.197  0.00  0.00    +0.000 C 
ATOM     65  O   UNK A   5     -15.660  27.727 -24.186  0.00  0.00    +0.000 OA
ATOM     66  N   UNK A   5     -15.950  28.508 -26.268  0.00  0.00    +0.000 N 
ATOM     67  H   UNK A   5     -16.958  28.253 -26.271  0.00  0.00    +0.000 HD
ATOM     68  H   UNK A   5     -15.526  28.959 -27.104  0.00  0.00    +0.000 HD
ENDBRANCH  63  64
ENDBRANCH  23  63
ENDBRANCH  21  23
ENDBRANCH  13  16
ENDBRANCH  11  12
ENDBRANCH   8  11
ENDBRANCH   6   7
BRANCH   6  69
ATOM     69  CB  PHE A   8     -14.748  23.215 -24.559  0.00  0.00    +0.000 C 
BRANCH  69  70
ATOM     70  CG  PHE A   8     -15.356  23.579 -25.889  0.00  0.00    +0.000 A 
ATOM     71  CD2 PHE A   8     -15.996  24.800 -26.071  0.00  0.00    +0.000 A 
ATOM     72  CE2 PHE A   8     -16.552  25.141 -27.301  0.00  0.00    +0.000 A 
ATOM     73  CZ  PHE A   8     -16.464  24.252 -28.366  0.00  0.00    +0.000 A 
ATOM     74  CE1 PHE A   8     -15.830  23.035 -28.199  0.00  0.00    +0.000 A 
ATOM     75  CD1 PHE A   8     -15.277  22.700 -26.964  0.00  0.00    +0.000 A 
ENDBRANCH  69  70
ENDBRANCH   6  69
ENDBRANCH   4   6
ENDBRANCH   1   2
BRANCH   1  77
ATOM     76  N   UNK A   1     -15.618  22.524 -19.046  0.00  0.00    +0.000 N 
ATOM     77  C   HIS A   9     -14.709  21.607 -19.370  0.00  0.00    +0.000 C 
ATOM     78  O   HIS A   9     -14.679  20.482 -18.872  0.00  0.00    +0.000 OA
ATOM     79  H   UNK A   1     -15.581  23.455 -19.507  0.00  0.00    +0.000 HD
BRANCH  76  80
ATOM     80  C   UNK A   1     -16.670  22.261 -18.058  0.00  0.00    +0.000 C 
BRANCH  80  81
ATOM     81  C   UNK A   1     -17.777  21.347 -18.585  0.00  0.00    +0.000 C 
ATOM     82  O   ACE A  10     -18.457  20.679 -17.798  0.00  0.00    +0.000 OA
ENDBRANCH  80  81
BRANCH  80  83
ATOM     83  C   UNK A   1     -17.272  23.581 -17.551  0.00  0.00    +0.000 C 
BRANCH  83  84
ATOM     84  C   UNK A   1     -16.257  24.541 -16.944  0.00  0.00    +0.000 C 
BRANCH  84  85
ATOM     85  C   UNK A   1     -15.455  23.917 -15.822  0.00  0.00    +0.000 C 
ATOM     86  O   UNK A   1     -14.292  24.323 -15.628  0.00  0.00    +0.000 OA
BRANCH  85  87
ATOM     87  O   UNK A   1     -15.989  23.028 -15.122  0.00  0.00    +0.000 OA
BRANCH  87  93
ATOM     88  C   UNK A   1     -17.639  16.191 -13.996  0.00  0.00    +0.000 C 
ATOM     89  C   UNK A   1     -18.317  17.277 -13.142  0.00  0.00    +0.000 C 
ATOM     90  C   UNK A   1     -17.870  18.664 -13.484  0.00  0.00    +0.000 A 
ATOM     91  C   UNK A   1     -16.886  19.439 -12.969  0.00  0.00    +0.000 A 
ATOM     92  N   UNK A   1     -16.884  20.617 -13.679  0.00  0.00    +0.000 N 
ATOM     93 ZN   UNK A   1     -15.194  21.891 -13.659  0.00  0.00    +0.000 Zn
ATOM     94  N   UNK A   5     -13.800  20.867 -14.730  0.00  0.00    +0.000 N 
ATOM     95  C   UNK A   5     -13.056  19.761 -14.404  0.00  0.00    +0.000 A 
ATOM     96  C   UNK A   5     -12.334  19.428 -15.500  0.00  0.00    +0.000 A 
ATOM     97  C   UNK A   5     -11.332  18.338 -15.721  0.00  0.00    +0.000 C 
ATOM     98  C   UNK A   5     -11.534  17.552 -17.013  0.00  0.00    +0.000 C 
ATOM     99  N   UNK A   5     -12.724  16.705 -16.942  0.00  0.00    +0.000 N 
ATOM    100  H   UNK A   5     -13.266  16.667 -16.055  0.00  0.00    +0.000 HD
ATOM    101  C   ALA A   4     -13.133  15.979 -17.985  0.00  0.00    +0.000 C 
ATOM    102  CA  ALA A   4     -14.297  15.030 -17.739  0.00  0.00    +0.000 C 
ATOM    103  N   ALA A   4     -14.190  14.380 -16.432  0.00  0.00    +0.000 N 
ATOM    104  H   ALA A   4     -14.908  14.589 -15.709  0.00  0.00    +0.000 HD
ATOM    105  C   GLY A   3     -13.207  13.530 -16.133  0.00  0.00    +0.000 C 
ATOM    106  CA  GLY A   3     -13.147  13.053 -14.685  0.00  0.00    +0.000 C 
ATOM    107  N   GLY A   3     -13.812  14.001 -13.788  0.00  0.00    +0.000 N 
ATOM    108  H   GLY A   3     -14.700  13.723 -13.323  0.00  0.00    +0.000 HD
ATOM    109  C   THR A   2     -13.305  15.212 -13.554  0.00  0.00    +0.000 C 
ATOM    110  CA  THR A   2     -14.087  16.108 -12.601  0.00  0.00    +0.000 C 
ATOM    111  N   THR A   2     -15.531  15.983 -12.799  0.00  0.00    +0.000 N 
ATOM    112  H   THR A   2     -16.115  15.595 -12.031  0.00  0.00    +0.000 HD
ATOM    113  O   THR A   2     -12.257  15.615 -14.062  0.00  0.00    +0.000 OA
ATOM    114  O   GLY A   3     -12.379  13.131 -16.956  0.00  0.00    +0.000 OA
ATOM    115  O   ALA A   4     -12.612  16.051 -19.096  0.00  0.00    +0.000 OA
ATOM    116  N   UNK A   5     -12.654  20.357 -16.466  0.00  0.00    +0.000 NA
ATOM    117  C   UNK A   5     -13.546  21.202 -15.982  0.00  0.00    +0.000 A 
ATOM    118  C   UNK A   1     -17.832  20.565 -14.597  0.00  0.00    +0.000 A 
ATOM    119  N   UNK A   1     -18.435  19.393 -14.507  0.00  0.00    +0.000 NA
ATOM    120  C   UNK A   1     -16.119  16.352 -13.935  0.00  0.00    +0.000 C 
ATOM    121  O   UNK A   1     -15.499  16.806 -14.897  0.00  0.00    +0.000 OA
BRANCH  98 122
ATOM    122  C   UNK A   5     -10.304  16.689 -17.263  0.00  0.00    +0.000 C 
ATOM    123  N   PRO A   6     -10.167  15.628 -16.463  0.00  0.00    +0.000 N 
ATOM    124  H   PRO A   6     -10.883  15.462 -15.727  0.00  0.00    +0.000 HD
ATOM    125  O   UNK A   5      -9.508  16.977 -18.158  0.00  0.00    +0.000 OA
BRANCH 123 126
ATOM    126  CA  PRO A   6      -9.048  14.688 -16.580  0.00  0.00    +0.000 C 
BRANCH 126 127
ATOM    127  CB  PRO A   6      -9.141  13.541 -15.524  0.00  0.00    +0.000 C 
ATOM    128  CG2 PRO A   6      -8.061  12.480 -15.768  0.00  0.00    +0.000 C 
BRANCH 127 129
ATOM    129  CG1 PRO A   6      -9.084  14.096 -14.092  0.00  0.00    +0.000 C 
ATOM    130  CD1 PRO A   6      -7.750  14.717 -13.674  0.00  0.00    +0.000 C 
ENDBRANCH 127 129
ENDBRANCH 126 127
BRANCH 126 131
ATOM    131  C   PRO A   6      -8.945  14.107 -17.995  0.00  0.00    +0.000 C 
ATOM    132  O   PRO A   6      -7.856  14.054 -18.572  0.00  0.00    +0.000 OA
ENDBRANCH 126 131
ENDBRANCH 123 126
ENDBRANCH  98 122
BRANCH  88 133
ATOM    133  N   UNK A   1     -18.028  14.845 -13.584  0.00  0.00    +0.000 NA
ATOM    134  H   UNK A   1     -18.639  14.722 -12.751  0.00  0.00    +0.000 HD
ENDBRANCH  88 133
BRANCH 106 135
ATOM    135  CB  GLY A   3     -13.739  11.645 -14.552  0.00  0.00    +0.000 C 
BRANCH 135 136
ATOM    136  CG  GLY A   3     -13.402  10.839 -13.289  0.00  0.00    +0.000 C 
ATOM    137  CD2 GLY A   3     -11.927  10.510 -13.192  0.00  0.00    +0.000 C 
ATOM    138  CD1 GLY A   3     -14.234   9.563 -13.254  0.00  0.00    +0.000 C 
ENDBRANCH 135 136
ENDBRANCH 106 135
BRANCH 110 139
ATOM    139  CB  THR A   2     -13.683  15.807 -11.151  0.00  0.00    +0.000 C 
BRANCH 139 140
ATOM    140  CG  THR A   2     -14.421  16.606 -10.079  0.00  0.00    +0.000 C 
BRANCH 140 141
ATOM    141  CD  THR A   2     -14.437  18.107 -10.332  0.00  0.00    +0.000 C 
ATOM    142  OE2 THR A   2     -15.420  18.751  -9.913  0.00  0.00    +0.000 OA
ATOM    143  OE1 THR A   2     -13.480  18.645 -10.935  0.00  0.00    +0.000 OA
ENDBRANCH 140 141
ENDBRANCH 139 140
ENDBRANCH 110 139
ENDBRANCH  87  93
ENDBRANCH  85  87
ENDBRANCH  84  85
ENDBRANCH  83  84
ENDBRANCH  80  83
ENDBRANCH  76  80
ENDBRANCH   1  77
BRANCH   1 144
ATOM    144  CB  HIS A   9     -12.524  22.775 -19.782  0.00  0.00    +0.000 C 
BRANCH 144 145
ATOM    145  CG  HIS A   9     -11.262  21.977 -19.681  0.00  0.00    +0.000 A 
ATOM    146  ND1 HIS A   9     -11.125  20.903 -18.828  0.00  0.00    +0.000 NA
ATOM    147  CE1 HIS A   9      -9.910  20.399 -18.950  0.00  0.00    +0.000 A 
ATOM    148  NE2 HIS A   9      -9.253  21.107 -19.852  0.00  0.00    +0.000 NA
ATOM    149  CD2 HIS A   9     -10.078  22.098 -20.328  0.00  0.00    +0.000 A 
ENDBRANCH 144 145
ENDBRANCH   1 144
TORSDOF 47
REMARK  Name = ../refined-set-2016/2xhm/2xhm_pocket.pdb
REMARK  227 active torsions:
REMARK  status: ('A' for Active; 'I' for Inactive)
REMARK    1  A    between atoms: _1  and  _3
REMARK    2  A    between atoms: _3  and  _4
REMARK    3  A    between atoms: _3  and  _6
REMARK    4  A    between atoms: _6  and  _7
REMARK    5  A    between atoms: _10  and  _12
REMARK    6  A    between atoms: _12  and  _13
REMARK    7  A    between atoms: _12  and  _15
REMARK    8  A    between atoms: _15  and  _16
REMARK    9  A    between atoms: _16  and  _17
REMARK   10  A    between atoms: _20  and  _22
REMARK   11  A    between atoms: _22  and  _23
REMARK   12  A    between atoms: _22  and  _25
REMARK   13  A    between atoms: _25  and  _26
REMARK   14  A    between atoms: _29  and  _31
REMARK   15  A    between atoms: _31  and  _32
REMARK   16  A    between atoms: _31  and  _34
REMARK   17  A    between atoms: _34  and  _35
REMARK   18  A    between atoms: _35  and  _36
REMARK   19  A    between atoms: _39  and  _41
REMARK   20  A    between atoms: _41  and  _42
REMARK   21  A    between atoms: _45  and  _47
REMARK   22  A    between atoms: _47  and  _48
REMARK   23  A    between atoms: _51  and  _53
REMARK   24  A    between atoms: _53  and  _54
REMARK   25  A    between atoms: _53  and  _56
REMARK   26  A    between atoms: _56  and  _57
REMARK   27  A    between atoms: _67  and  _69
REMARK   28  A    between atoms: _69  and  _70
REMARK   29  A    between atoms: _69  and  _72
REMARK   30  A    between atoms: _72  and  _73
REMARK   31  A    between atoms: _73  and  _74
REMARK   32  A    between atoms: _74  and  _75
REMARK   33  A    between atoms: _75  and  _76
REMARK   34  A    between atoms: _80  and  _82
REMARK   35  A    between atoms: _82  and  _83
REMARK   36  A    between atoms: _82  and  _85
REMARK   37  A    between atoms: _85  and  _86
REMARK   38  A    between atoms: _88  and  _90
REMARK   39  A    between atoms: _90  and  _91
REMARK   40  A    between atoms: _90  and  _93
REMARK   41  A    between atoms: _93  and  _94
REMARK   42  A    between atoms: _94  and  _95
REMARK   43  A    between atoms: _98  and  _100
REMARK   44  A    between atoms: _100  and  _101
REMARK   45  A    between atoms: _100  and  _103
REMARK   46  A    between atoms: _103  and  _104
REMARK   47  A    between atoms: _104  and  _105
REMARK   48  A    between atoms: _110  and  _112
REMARK   49  A    between atoms: _112  and  _113
REMARK   50  A    between atoms: _112  and  _115
REMARK   51  A    between atoms: _118  and  _120
REMARK   52  A    between atoms: _120  and  _121
REMARK   53  A    between atoms: _120  and  _123
REMARK   54  A    between atoms: _123  and  _124
REMARK   55  A    between atoms: _129  and  _131
REMARK   56  A    between atoms: _131  and  _132
REMARK   57  A    between atoms: _135  and  _137
REMARK   58  A    between atoms: _137  and  _138
REMARK   59  A    between atoms: _137  and  _140
REMARK   60  A    between atoms: _140  and  _141
REMARK   61  A    between atoms: _143  and  _145
REMARK   62  A    between atoms: _145  and  _146
REMARK   63  A    between atoms: _149  and  _151
REMARK   64  A    between atoms: _151  and  _152
REMARK   65  A    between atoms: _151  and  _154
REMARK   66  A    between atoms: _154  and  _155
REMARK   67  A    between atoms: _165  and  _167
REMARK   68  A    between atoms: _167  and  _168
REMARK   69  A    between atoms: _167  and  _170
REMARK   70  A    between atoms: _170  and  _171
REMARK   71  A    between atoms: _174  and  _176
REMARK   72  A    between atoms: _176  and  _177
REMARK   73  A    between atoms: _176  and  _179
REMARK   74  A    between atoms: _179  and  _180
REMARK   75  A    between atoms: _186  and  _188
REMARK   76  A    between atoms: _188  and  _189
REMARK   77  A    between atoms: _188  and  _191
REMARK   78  A    between atoms: _191  and  _192
REMARK   79  A    between atoms: _197  and  _198
REMARK   80  A    between atoms: _200  and  _202
REMARK   81  A    between atoms: _202  and  _203
REMARK   82  A    between atoms: _202  and  _205
REMARK   83  A    between atoms: _205  and  _206
REMARK   84  A    between atoms: _209  and  _211
REMARK   85  A    between atoms: _211  and  _212
REMARK   86  A    between atoms: _211  and  _214
REMARK   87  A    between atoms: _217  and  _219
REMARK   88  A    between atoms: _219  and  _220
REMARK   89  A    between atoms: _219  and  _222
REMARK   90  A    between atoms: _222  and  _223
REMARK   91  A    between atoms: _223  and  _224
REMARK   92  A    between atoms: _224  and  _225
REMARK   93  A    between atoms: _234  and  _236
REMARK   94  A    between atoms: _236  and  _237
REMARK   95  A    between atoms: _236  and  _239
REMARK   96  A    between atoms: _239  and  _240
REMARK   97  A    between atoms: _243  and  _245
REMARK   98  A    between atoms: _245  and  _246
REMARK   99  A    between atoms: _245  and  _248
REMARK  100  A    between atoms: _248  and  _249
REMARK  101  A    between atoms: _249  and  _250
REMARK  102  A    between atoms: _250  and  _251
REMARK  103  A    between atoms: _251  and  _252
REMARK  104  A    between atoms: _256  and  _258
REMARK  105  A    between atoms: _258  and  _259
REMARK  106  A    between atoms: _258  and  _261
REMARK  107  A    between atoms: _261  and  _262
REMARK  108  A    between atoms: _262  and  _263
REMARK  109  A    between atoms: _268  and  _270
REMARK  110  A    between atoms: _270  and  _271
REMARK  111  A    between atoms: _270  and  _273
REMARK  112  A    between atoms: _273  and  _274
REMARK  113  A    between atoms: _277  and  _279
REMARK  114  A    between atoms: _290  and  _293
REMARK  115  A    between atoms: _293  and  _294
REMARK  116  A    between atoms: _294  and  _295
REMARK  117  A    between atoms: _300  and  _303
REMARK  118  A    between atoms: _303  and  _304
REMARK  119  A    between atoms: _314  and  _315
REMARK  120  A    between atoms: _323  and  _325
REMARK  121  A    between atoms: _325  and  _326
REMARK  122  A    between atoms: _325  and  _328
REMARK  123  A    between atoms: _328  and  _329
REMARK  124  A    between atoms: _332  and  _334
REMARK  125  A    between atoms: _334  and  _335
REMARK  126  A    between atoms: _334  and  _337
REMARK  127  A    between atoms: _337  and  _338
REMARK  128  A    between atoms: _343  and  _344
REMARK  129  A    between atoms: _346  and  _348
REMARK  130  A    between atoms: _348  and  _349
REMARK  131  A    between atoms: _348  and  _351
REMARK  132  A    between atoms: _351  and  _352
REMARK  133  A    between atoms: _358  and  _360
REMARK  134  A    between atoms: _360  and  _361
REMARK  135  A    between atoms: _360  and  _363
REMARK  136  A    between atoms: _363  and  _364
REMARK  137  A    between atoms: _369  and  _370
REMARK  138  A    between atoms: _372  and  _374
REMARK  139  A    between atoms: _374  and  _375
REMARK  140  A    between atoms: _374  and  _377
REMARK  141  A    between atoms: _377  and  _378
REMARK  142  A    between atoms: _384  and  _386
REMARK  143  A    between atoms: _386  and  _387
REMARK  144  A    between atoms: _386  and  _389
REMARK  145  A    between atoms: _389  and  _390
REMARK  146  A    between atoms: _390  and  _391
REMARK  147  A    between atoms: _391  and  _392
REMARK  148  A    between atoms: _401  and  _403
REMARK  149  A    between atoms: _403  and  _404
REMARK  150  A    between atoms: _403  and  _406
REMARK  151  A    between atoms: _406  and  _407
REMARK  152  A    between atoms: _410  and  _412
REMARK  153  A    between atoms: _412  and  _413
REMARK  154  A    between atoms: _415  and  _417
REMARK  155  A    between atoms: _417  and  _418
REMARK  156  A    between atoms: _421  and  _423
REMARK  157  A    between atoms: _423  and  _424
REMARK  158  A    between atoms: _423  and  _426
REMARK  159  A    between atoms: _426  and  _427
REMARK  160  A    between atoms: _433  and  _434
REMARK  161  A    between atoms: _439  and  _441
REMARK  162  A    between atoms: _441  and  _442
REMARK  163  A    between atoms: _444  and  _446
REMARK  164  A    between atoms: _446  and  _447
REMARK  165  A    between atoms: _446  and  _449
REMARK  166  A    between atoms: _449  and  _450
REMARK  167  A    between atoms: _456  and  _458
REMARK  168  A    between atoms: _458  and  _459
REMARK  169  A    between atoms: _458  and  _461
REMARK  170  A    between atoms: _461  and  _462
REMARK  171  A    between atoms: _467  and  _469
REMARK  172  A    between atoms: _469  and  _470
REMARK  173  A    between atoms: _469  and  _472
REMARK  174  A    between atoms: _472  and  _473
REMARK  175  A    between atoms: _473  and  _474
REMARK  176  A    between atoms: _474  and  _475
REMARK  177  A    between atoms: _475  and  ZN_601
REMARK  178  A    between atoms: _477  and  _479
REMARK  179  A    between atoms: _479  and  _480
REMARK  180  A    between atoms: _479  and  _482
REMARK  181  A    between atoms: _482  and  _483
REMARK  182  A    between atoms: _483  and  _484
REMARK  183  A    between atoms: _484  and  _485
REMARK  184  A    between atoms: _485  and  _486
REMARK  185  A    between atoms: _490  and  _492
REMARK  186  A    between atoms: _492  and  _493
REMARK  187  A    between atoms: _492  and  _495
REMARK  188  A    between atoms: _495  and  _496
REMARK  189  A    between atoms: _501  and  _502
REMARK  190  A    between atoms: _504  and  _506
REMARK  191  A    between atoms: _506  and  _507
REMARK  192  A    between atoms: _506  and  _509
REMARK  193  A    between atoms: _509  and  _510
REMARK  194  A    between atoms: _515  and  _517
REMARK  195  A    between atoms: _517  and  _518
REMARK  196  A    between atoms: _521  and  _523
REMARK  197  A    between atoms: _523  and  _524
REMARK  198  A    between atoms: _523  and  _526
REMARK  199  A    between atoms: _526  and  _527
REMARK  200  A    between atoms: _530  and  _532
REMARK  201  A    between atoms: _532  and  _533
REMARK  202  A    between atoms: _532  and  _535
REMARK  203  A    between atoms: _538  and  _540
REMARK  204  A    between atoms: _540  and  _541
REMARK  205  A    between atoms: _540  and  _543
REMARK  206  A    between atoms: _543  and  _544
REMARK  207  A    between atoms: _544  and  _545
REMARK  208  A    between atoms: _548  and  _550
REMARK  209  A    between atoms: _550  and  _551
REMARK  210  A    between atoms: _550  and  _553
REMARK  211  A    between atoms: _553  and  _554
REMARK  212  A    between atoms: _559  and  _560
REMARK  213  A    between atoms: _562  and  _564
REMARK  214  A    between atoms: _564  and  _565
REMARK  215  A    between atoms: _564  and  _567
REMARK  216  A    between atoms: _567  and  _568
REMARK  217  A    between atoms: _568  and  _569
REMARK  218  A    between atoms: _569  and  _570
REMARK  219  A    between atoms: _579  and  _581
REMARK  220  A    between atoms: _581  and  _582
REMARK  221  A    between atoms: _581  and  _584
REMARK  222  A    between atoms: _584  and  _585
REMARK  223  A    between atoms: _590  and  _591
REMARK  224  A    between atoms: _593  and  _595
REMARK  225  A    between atoms: _595  and  _596
REMARK  226  A    between atoms: _595  and  _598
REMARK  227  A    between atoms: _598  and  _599
REMARK                            x       y       z     vdW  Elec       q    Type
REMARK                         _______ _______ _______ _____ _____    ______ ____
ROOT
ATOM      1  C   TYR A   1      -8.009  16.626 -21.582  0.00  0.00    +0.239 C 
ATOM      2  N   PHE A   2      -7.462  16.586 -20.361  0.00  0.00    -0.298 N 
ATOM      3  H   PHE A   2      -8.084  16.511 -19.531  0.00  0.00    +0.150 HD
ATOM      4  O   TYR A   1      -7.343  16.747 -22.610  0.00  0.00    -0.274 OA
ENDROOT
BRANCH   1   5
ATOM      5  CA  TYR A   1      -9.535  16.483 -21.682  0.00  0.00    +0.149 C 
BRANCH   5   6
ATOM      6  N   TYR A   1     -10.002  15.408 -20.804  0.00  0.00    -0.238 NA
ATOM      7  H   TYR A   1     -10.693  15.632 -20.059  0.00  0.00    +0.142 HD
ENDBRANCH   5   6
BRANCH   5   8
ATOM      8  CB  TYR A   1     -10.226  17.807 -21.324  0.00  0.00    +0.053 C 
BRANCH   8   9
ATOM      9  CG  TYR A   1     -10.615  18.731 -22.480  0.00  0.00    -0.020 A 
ATOM     10  CD2 TYR A   1     -11.654  19.645 -22.325  0.00  0.00    -0.001 A 
ATOM     11  CE2 TYR A   1     -12.028  20.506 -23.355  0.00  0.00    +0.036 A 
ATOM     12  CZ  TYR A   1     -11.353  20.464 -24.565  0.00  0.00    +0.134 A 
ATOM     13  CE1 TYR A   1     -10.312  19.563 -24.754  0.00  0.00    +0.036 A 
ATOM     14  CD1 TYR A   1      -9.949  18.701 -23.712  0.00  0.00    -0.001 A 
BRANCH  12  15
ATOM     15  OH  TYR A   1     -11.737  21.322 -25.573  0.00  0.00    -0.506 OA
ATOM     16  HH  TYR A   1     -12.025  20.796 -26.361  0.00  0.00    +0.292 HD
ENDBRANCH  12  15
ENDBRANCH   8   9
ENDBRANCH   5   8
ENDBRANCH   1   5
BRANCH   2  17
ATOM     17  CA  PHE A   2      -6.001  16.645 -20.160  0.00  0.00    +0.141 C 
BRANCH  17  18
ATOM     18  C   PHE A   2      -5.293  15.551 -20.961  0.00  0.00    +0.227 C 
ATOM     19  O   PHE A   2      -4.306  15.817 -21.658  0.00  0.00    -0.286 OA
ENDBRANCH  17  18
BRANCH  17  20
ATOM     20  CB  PHE A   2      -5.588  16.469 -18.692  0.00  0.00    +0.054 C 
BRANCH  20  21
ATOM     21  CG  PHE A   2      -6.199  17.457 -17.723  0.00  0.00    -0.020 A 
ATOM     22  CD2 PHE A   2      -6.368  17.090 -16.389  0.00  0.00    -0.004 A 
ATOM     23  CE2 PHE A   2      -6.912  17.971 -15.466  0.00  0.00    -0.000 A 
ATOM     24  CZ  PHE A   2      -7.268  19.256 -15.865  0.00  0.00    -0.000 A 
ATOM     25  CE1 PHE A   2      -7.086  19.646 -17.186  0.00  0.00    -0.000 A 
ATOM     26  CD1 PHE A   2      -6.546  18.751 -18.108  0.00  0.00    -0.004 A 
ENDBRANCH  20  21
ENDBRANCH  17  20
ENDBRANCH   2  17
TORSDOF 9
REMARK  Name = ../refined-set-2016/2xhm/2xhm_pocket.pdb
REMARK  227 active torsions:
REMARK  status: ('A' for Active; 'I' for Inactive)
REMARK    1  A    between atoms: _1  and  _3
REMARK    2  A    between atoms: _3  and  _4
REMARK    3  A    between atoms: _3  and  _6
REMARK    4  A    between atoms: _6  and  _7
REMARK    5  A    between atoms: _10  and  _12
REMARK    6  A    between atoms: _12  and  _13
REMARK    7  A    between atoms: _12  and  _15
REMARK    8  A    between atoms: _15  and  _16
REMARK    9  A    between atoms: _16  and  _17
REMARK   10  A    between atoms: _20  and  _22
REMARK   11  A    between atoms: _22  and  _23
REMARK   12  A    between atoms: _22  and  _25
REMARK   13  A    between atoms: _25  and  _26
REMARK   14  A    between atoms: _29  and  _31
REMARK   15  A    between atoms: _31  and  _32
REMARK   16  A    between atoms: _31  and  _34
REMARK   17  A    between atoms: _34  and  _35
REMARK   18  A    between atoms: _35  and  _36
REMARK   19  A    between atoms: _39  and  _41
REMARK   20  A    between atoms: _41  and  _42
REMARK   21  A    between atoms: _45  and  _47
REMARK   22  A    between atoms: _47  and  _48
REMARK   23  A    between atoms: _51  and  _53
REMARK   24  A    between atoms: _53  and  _54
REMARK   25  A    between atoms: _53  and  _56
REMARK   26  A    between atoms: _56  and  _57
REMARK   27  A    between atoms: _67  and  _69
REMARK   28  A    between atoms: _69  and  _70
REMARK   29  A    between atoms: _69  and  _72
REMARK   30  A    between atoms: _72  and  _73
REMARK   31  A    between atoms: _73  and  _74
REMARK   32  A    between atoms: _74  and  _75
REMARK   33  A    between atoms: _75  and  _76
REMARK   34  A    between atoms: _80  and  _82
REMARK   35  A    between atoms: _82  and  _83
REMARK   36  A    between atoms: _82  and  _85
REMARK   37  A    between atoms: _85  and  _86
REMARK   38  A    between atoms: _88  and  _90
REMARK   39  A    between atoms: _90  and  _91
REMARK   40  A    between atoms: _90  and  _93
REMARK   41  A    between atoms: _93  and  _94
REMARK   42  A    between atoms: _94  and  _95
REMARK   43  A    between atoms: _98  and  _100
REMARK   44  A    between atoms: _100  and  _101
REMARK   45  A    between atoms: _100  and  _103
REMARK   46  A    between atoms: _103  and  _104
REMARK   47  A    between atoms: _104  and  _105
REMARK   48  A    between atoms: _110  and  _112
REMARK   49  A    between atoms: _112  and  _113
REMARK   50  A    between atoms: _112  and  _115
REMARK   51  A    between atoms: _118  and  _120
REMARK   52  A    between atoms: _120  and  _121
REMARK   53  A    between atoms: _120  and  _123
REMARK   54  A    between atoms: _123  and  _124
REMARK   55  A    between atoms: _129  and  _131
REMARK   56  A    between atoms: _131  and  _132
REMARK   57  A    between atoms: _135  and  _137
REMARK   58  A    between atoms: _137  and  _138
REMARK   59  A    between atoms: _137  and  _140
REMARK   60  A    between atoms: _140  and  _141
REMARK   61  A    between atoms: _143  and  _145
REMARK   62  A    between atoms: _145  and  _146
REMARK   63  A    between atoms: _149  and  _151
REMARK   64  A    between atoms: _151  and  _152
REMARK   65  A    between atoms: _151  and  _154
REMARK   66  A    between atoms: _154  and  _155
REMARK   67  A    between atoms: _165  and  _167
REMARK   68  A    between atoms: _167  and  _168
REMARK   69  A    between atoms: _167  and  _170
REMARK   70  A    between atoms: _170  and  _171
REMARK   71  A    between atoms: _174  and  _176
REMARK   72  A    between atoms: _176  and  _177
REMARK   73  A    between atoms: _176  and  _179
REMARK   74  A    between atoms: _179  and  _180
REMARK   75  A    between atoms: _186  and  _188
REMARK   76  A    between atoms: _188  and  _189
REMARK   77  A    between atoms: _188  and  _191
REMARK   78  A    between atoms: _191  and  _192
REMARK   79  A    between atoms: _197  and  _198
REMARK   80  A    between atoms: _200  and  _202
REMARK   81  A    between atoms: _202  and  _203
REMARK   82  A    between atoms: _202  and  _205
REMARK   83  A    between atoms: _205  and  _206
REMARK   84  A    between atoms: _209  and  _211
REMARK   85  A    between atoms: _211  and  _212
REMARK   86  A    between atoms: _211  and  _214
REMARK   87  A    between atoms: _217  and  _219
REMARK   88  A    between atoms: _219  and  _220
REMARK   89  A    between atoms: _219  and  _222
REMARK   90  A    between atoms: _222  and  _223
REMARK   91  A    between atoms: _223  and  _224
REMARK   92  A    between atoms: _224  and  _225
REMARK   93  A    between atoms: _234  and  _236
REMARK   94  A    between atoms: _236  and  _237
REMARK   95  A    between atoms: _236  and  _239
REMARK   96  A    between atoms: _239  and  _240
REMARK   97  A    between atoms: _243  and  _245
REMARK   98  A    between atoms: _245  and  _246
REMARK   99  A    between atoms: _245  and  _248
REMARK  100  A    between atoms: _248  and  _249
REMARK  101  A    between atoms: _249  and  _250
REMARK  102  A    between atoms: _250  and  _251
REMARK  103  A    between atoms: _251  and  _252
REMARK  104  A    between atoms: _256  and  _258
REMARK  105  A    between atoms: _258  and  _259
REMARK  106  A    between atoms: _258  and  _261
REMARK  107  A    between atoms: _261  and  _262
REMARK  108  A    between atoms: _262  and  _263
REMARK  109  A    between atoms: _268  and  _270
REMARK  110  A    between atoms: _270  and  _271
REMARK  111  A    between atoms: _270  and  _273
REMARK  112  A    between atoms: _273  and  _274
REMARK  113  A    between atoms: _277  and  _279
REMARK  114  A    between atoms: _290  and  _293
REMARK  115  A    between atoms: _293  and  _294
REMARK  116  A    between atoms: _294  and  _295
REMARK  117  A    between atoms: _300  and  _303
REMARK  118  A    between atoms: _303  and  _304
REMARK  119  A    between atoms: _314  and  _315
REMARK  120  A    between atoms: _323  and  _325
REMARK  121  A    between atoms: _325  and  _326
REMARK  122  A    between atoms: _325  and  _328
REMARK  123  A    between atoms: _328  and  _329
REMARK  124  A    between atoms: _332  and  _334
REMARK  125  A    between atoms: _334  and  _335
REMARK  126  A    between atoms: _334  and  _337
REMARK  127  A    between atoms: _337  and  _338
REMARK  128  A    between atoms: _343  and  _344
REMARK  129  A    between atoms: _346  and  _348
REMARK  130  A    between atoms: _348  and  _349
REMARK  131  A    between atoms: _348  and  _351
REMARK  132  A    between atoms: _351  and  _352
REMARK  133  A    between atoms: _358  and  _360
REMARK  134  A    between atoms: _360  and  _361
REMARK  135  A    between atoms: _360  and  _363
REMARK  136  A    between atoms: _363  and  _364
REMARK  137  A    between atoms: _369  and  _370
REMARK  138  A    between atoms: _372  and  _374
REMARK  139  A    between atoms: _374  and  _375
REMARK  140  A    between atoms: _374  and  _377
REMARK  141  A    between atoms: _377  and  _378
REMARK  142  A    between atoms: _384  and  _386
REMARK  143  A    between atoms: _386  and  _387
REMARK  144  A    between atoms: _386  and  _389
REMARK  145  A    between atoms: _389  and  _390
REMARK  146  A    between atoms: _390  and  _391
REMARK  147  A    between atoms: _391  and  _392
REMARK  148  A    between atoms: _401  and  _403
REMARK  149  A    between atoms: _403  and  _404
REMARK  150  A    between atoms: _403  and  _406
REMARK  151  A    between atoms: _406  and  _407
REMARK  152  A    between atoms: _410  and  _412
REMARK  153  A    between atoms: _412  and  _413
REMARK  154  A    between atoms: _415  and  _417
REMARK  155  A    between atoms: _417  and  _418
REMARK  156  A    between atoms: _421  and  _423
REMARK  157  A    between atoms: _423  and  _424
REMARK  158  A    between atoms: _423  and  _426
REMARK  159  A    between atoms: _426  and  _427
REMARK  160  A    between atoms: _433  and  _434
REMARK  161  A    between atoms: _439  and  _441
REMARK  162  A    between atoms: _441  and  _442
REMARK  163  A    between atoms: _444  and  _446
REMARK  164  A    between atoms: _446  and  _447
REMARK  165  A    between atoms: _446  and  _449
REMARK  166  A    between atoms: _449  and  _450
REMARK  167  A    between atoms: _456  and  _458
REMARK  168  A    between atoms: _458  and  _459
REMARK  169  A    between atoms: _458  and  _461
REMARK  170  A    between atoms: _461  and  _462
REMARK  171  A    between atoms: _467  and  _469
REMARK  172  A    between atoms: _469  and  _470
REMARK  173  A    between atoms: _469  and  _472
REMARK  174  A    between atoms: _472  and  _473
REMARK  175  A    between atoms: _473  and  _474
REMARK  176  A    between atoms: _474  and  _475
REMARK  177  A    between atoms: _475  and  ZN_601
REMARK  178  A    between atoms: _477  and  _479
REMARK  179  A    between atoms: _479  and  _480
REMARK  180  A    between atoms: _479  and  _482
REMARK  181  A    between atoms: _482  and  _483
REMARK  182  A    between atoms: _483  and  _484
REMARK  183  A    between atoms: _484  and  _485
REMARK  184  A    between atoms: _485  and  _486
REMARK  185  A    between atoms: _490  and  _492
REMARK  186  A    between atoms: _492  and  _493
REMARK  187  A    between atoms: _492  and  _495
REMARK  188  A    between atoms: _495  and  _496
REMARK  189  A    between atoms: _501  and  _502
REMARK  190  A    between atoms: _504  and  _506
REMARK  191  A    between atoms: _506  and  _507
REMARK  192  A    between atoms: _506  and  _509
REMARK  193  A    between atoms: _509  and  _510
REMARK  194  A    between atoms: _515  and  _517
REMARK  195  A    between atoms: _517  and  _518
REMARK  196  A    between atoms: _521  and  _523
REMARK  197  A    between atoms: _523  and  _524
REMARK  198  A    between atoms: _523  and  _526
REMARK  199  A    between atoms: _526  and  _527
REMARK  200  A    between atoms: _530  and  _532
REMARK  201  A    between atoms: _532  and  _533
REMARK  202  A    between atoms: _532  and  _535
REMARK  203  A    between atoms: _538  and  _540
REMARK  204  A    between atoms: _540  and  _541
REMARK  205  A    between atoms: _540  and  _543
REMARK  206  A    between atoms: _543  and  _544
REMARK  207  A    between atoms: _544  and  _545
REMARK  208  A    between atoms: _548  and  _550
REMARK  209  A    between atoms: _550  and  _551
REMARK  210  A    between atoms: _550  and  _553
REMARK  211  A    between atoms: _553  and  _554
REMARK  212  A    between atoms: _559  and  _560
REMARK  213  A    between atoms: _562  and  _564
REMARK  214  A    between atoms: _564  and  _565
REMARK  215  A    between atoms: _564  and  _567
REMARK  216  A    between atoms: _567  and  _568
REMARK  217  A    between atoms: _568  and  _569
REMARK  218  A    between atoms: _569  and  _570
REMARK  219  A    between atoms: _579  and  _581
REMARK  220  A    between atoms: _581  and  _582
REMARK  221  A    between atoms: _581  and  _584
REMARK  222  A    between atoms: _584  and  _585
REMARK  223  A    between atoms: _590  and  _591
REMARK  224  A    between atoms: _593  and  _595
REMARK  225  A    between atoms: _595  and  _596
REMARK  226  A    between atoms: _595  and  _598
REMARK  227  A    between atoms: _598  and  _599
REMARK                            x       y       z     vdW  Elec       q    Type
REMARK                         _______ _______ _______ _____ _____    ______ ____
ROOT
ATOM      1  CG  TYR A   1      -5.545  19.006 -24.236  0.00  0.00    -0.020 A 
ATOM      2  CD2 TYR A   1      -4.617  19.034 -23.192  0.00  0.00    -0.001 A 
ATOM      3  CE2 TYR A   1      -4.919  19.655 -21.976  0.00  0.00    +0.036 A 
ATOM      4  CZ  TYR A   1      -6.153  20.274 -21.811  0.00  0.00    +0.134 A 
ATOM      5  CE1 TYR A   1      -7.072  20.274 -22.835  0.00  0.00    +0.036 A 
ATOM      6  CD1 TYR A   1      -6.766  19.651 -24.039  0.00  0.00    -0.001 A 
ENDROOT
BRANCH   4   7
ATOM      7  OH  TYR A   1      -6.470  20.900 -20.623  0.00  0.00    -0.506 OA
ATOM      8  HH  TYR A   1      -5.712  20.813 -19.993  0.00  0.00    +0.292 HD
ENDBRANCH   4   7
BRANCH   1   9
ATOM      9  CB  TYR A   1      -5.226  18.361 -25.581  0.00  0.00    +0.051 C 
BRANCH   9  10
ATOM     10  CA  TYR A   1      -4.531  16.981 -25.569  0.00  0.00    +0.137 C 
BRANCH  10  11
ATOM     11  N   TYR A   1      -5.373  15.957 -24.943  0.00  0.00    -0.239 NA
ATOM     12  H   TYR A   1      -5.670  16.068 -23.953  0.00  0.00    +0.142 HD
ENDBRANCH  10  11
BRANCH  10  13
ATOM     13  C   TYR A   1      -3.089  17.084 -25.057  0.00  0.00    +0.224 C 
ATOM     14  O   TYR A   1      -2.385  18.029 -25.411  0.00  0.00    -0.287 OA
ENDBRANCH  10  13
ENDBRANCH   9  10
ENDBRANCH   1   9
TORSDOF 5
REMARK  Name = ../refined-set-2016/2xhm/2xhm_pocket.pdb
REMARK  227 active torsions:
REMARK  status: ('A' for Active; 'I' for Inactive)
REMARK    1  A    between atoms: _1  and  _3
REMARK    2  A    between atoms: _3  and  _4
REMARK    3  A    between atoms: _3  and  _6
REMARK    4  A    between atoms: _6  and  _7
REMARK    5  A    between atoms: _10  and  _12
REMARK    6  A    between atoms: _12  and  _13
REMARK    7  A    between atoms: _12  and  _15
REMARK    8  A    between atoms: _15  and  _16
REMARK    9  A    between atoms: _16  and  _17
REMARK   10  A    between atoms: _20  and  _22
REMARK   11  A    between atoms: _22  and  _23
REMARK   12  A    between atoms: _22  and  _25
REMARK   13  A    between atoms: _25  and  _26
REMARK   14  A    between atoms: _29  and  _31
REMARK   15  A    between atoms: _31  and  _32
REMARK   16  A    between atoms: _31  and  _34
REMARK   17  A    between atoms: _34  and  _35
REMARK   18  A    between atoms: _35  and  _36
REMARK   19  A    between atoms: _39  and  _41
REMARK   20  A    between atoms: _41  and  _42
REMARK   21  A    between atoms: _45  and  _47
REMARK   22  A    between atoms: _47  and  _48
REMARK   23  A    between atoms: _51  and  _53
REMARK   24  A    between atoms: _53  and  _54
REMARK   25  A    between atoms: _53  and  _56
REMARK   26  A    between atoms: _56  and  _57
REMARK   27  A    between atoms: _67  and  _69
REMARK   28  A    between atoms: _69  and  _70
REMARK   29  A    between atoms: _69  and  _72
REMARK   30  A    between atoms: _72  and  _73
REMARK   31  A    between atoms: _73  and  _74
REMARK   32  A    between atoms: _74  and  _75
REMARK   33  A    between atoms: _75  and  _76
REMARK   34  A    between atoms: _80  and  _82
REMARK   35  A    between atoms: _82  and  _83
REMARK   36  A    between atoms: _82  and  _85
REMARK   37  A    between atoms: _85  and  _86
REMARK   38  A    between atoms: _88  and  _90
REMARK   39  A    between atoms: _90  and  _91
REMARK   40  A    between atoms: _90  and  _93
REMARK   41  A    between atoms: _93  and  _94
REMARK   42  A    between atoms: _94  and  _95
REMARK   43  A    between atoms: _98  and  _100
REMARK   44  A    between atoms: _100  and  _101
REMARK   45  A    between atoms: _100  and  _103
REMARK   46  A    between atoms: _103  and  _104
REMARK   47  A    between atoms: _104  and  _105
REMARK   48  A    between atoms: _110  and  _112
REMARK   49  A    between atoms: _112  and  _113
REMARK   50  A    between atoms: _112  and  _115
REMARK   51  A    between atoms: _118  and  _120
REMARK   52  A    between atoms: _120  and  _121
REMARK   53  A    between atoms: _120  and  _123
REMARK   54  A    between atoms: _123  and  _124
REMARK   55  A    between atoms: _129  and  _131
REMARK   56  A    between atoms: _131  and  _132
REMARK   57  A    between atoms: _135  and  _137
REMARK   58  A    between atoms: _137  and  _138
REMARK   59  A    between atoms: _137  and  _140
REMARK   60  A    between atoms: _140  and  _141
REMARK   61  A    between atoms: _143  and  _145
REMARK   62  A    between atoms: _145  and  _146
REMARK   63  A    between atoms: _149  and  _151
REMARK   64  A    between atoms: _151  and  _152
REMARK   65  A    between atoms: _151  and  _154
REMARK   66  A    between atoms: _154  and  _155
REMARK   67  A    between atoms: _165  and  _167
REMARK   68  A    between atoms: _167  and  _168
REMARK   69  A    between atoms: _167  and  _170
REMARK   70  A    between atoms: _170  and  _171
REMARK   71  A    between atoms: _174  and  _176
REMARK   72  A    between atoms: _176  and  _177
REMARK   73  A    between atoms: _176  and  _179
REMARK   74  A    between atoms: _179  and  _180
REMARK   75  A    between atoms: _186  and  _188
REMARK   76  A    between atoms: _188  and  _189
REMARK   77  A    between atoms: _188  and  _191
REMARK   78  A    between atoms: _191  and  _192
REMARK   79  A    between atoms: _197  and  _198
REMARK   80  A    between atoms: _200  and  _202
REMARK   81  A    between atoms: _202  and  _203
REMARK   82  A    between atoms: _202  and  _205
REMARK   83  A    between atoms: _205  and  _206
REMARK   84  A    between atoms: _209  and  _211
REMARK   85  A    between atoms: _211  and  _212
REMARK   86  A    between atoms: _211  and  _214
REMARK   87  A    between atoms: _217  and  _219
REMARK   88  A    between atoms: _219  and  _220
REMARK   89  A    between atoms: _219  and  _222
REMARK   90  A    between atoms: _222  and  _223
REMARK   91  A    between atoms: _223  and  _224
REMARK   92  A    between atoms: _224  and  _225
REMARK   93  A    between atoms: _234  and  _236
REMARK   94  A    between atoms: _236  and  _237
REMARK   95  A    between atoms: _236  and  _239
REMARK   96  A    between atoms: _239  and  _240
REMARK   97  A    between atoms: _243  and  _245
REMARK   98  A    between atoms: _245  and  _246
REMARK   99  A    between atoms: _245  and  _248
REMARK  100  A    between atoms: _248  and  _249
REMARK  101  A    between atoms: _249  and  _250
REMARK  102  A    between atoms: _250  and  _251
REMARK  103  A    between atoms: _251  and  _252
REMARK  104  A    between atoms: _256  and  _258
REMARK  105  A    between atoms: _258  and  _259
REMARK  106  A    between atoms: _258  and  _261
REMARK  107  A    between atoms: _261  and  _262
REMARK  108  A    between atoms: _262  and  _263
REMARK  109  A    between atoms: _268  and  _270
REMARK  110  A    between atoms: _270  and  _271
REMARK  111  A    between atoms: _270  and  _273
REMARK  112  A    between atoms: _273  and  _274
REMARK  113  A    between atoms: _277  and  _279
REMARK  114  A    between atoms: _290  and  _293
REMARK  115  A    between atoms: _293  and  _294
REMARK  116  A    between atoms: _294  and  _295
REMARK  117  A    between atoms: _300  and  _303
REMARK  118  A    between atoms: _303  and  _304
REMARK  119  A    between atoms: _314  and  _315
REMARK  120  A    between atoms: _323  and  _325
REMARK  121  A    between atoms: _325  and  _326
REMARK  122  A    between atoms: _325  and  _328
REMARK  123  A    between atoms: _328  and  _329
REMARK  124  A    between atoms: _332  and  _334
REMARK  125  A    between atoms: _334  and  _335
REMARK  126  A    between atoms: _334  and  _337
REMARK  127  A    between atoms: _337  and  _338
REMARK  128  A    between atoms: _343  and  _344
REMARK  129  A    between atoms: _346  and  _348
REMARK  130  A    between atoms: _348  and  _349
REMARK  131  A    between atoms: _348  and  _351
REMARK  132  A    between atoms: _351  and  _352
REMARK  133  A    between atoms: _358  and  _360
REMARK  134  A    between atoms: _360  and  _361
REMARK  135  A    between atoms: _360  and  _363
REMARK  136  A    between atoms: _363  and  _364
REMARK  137  A    between atoms: _369  and  _370
REMARK  138  A    between atoms: _372  and  _374
REMARK  139  A    between atoms: _374  and  _375
REMARK  140  A    between atoms: _374  and  _377
REMARK  141  A    between atoms: _377  and  _378
REMARK  142  A    between atoms: _384  and  _386
REMARK  143  A    between atoms: _386  and  _387
REMARK  144  A    between atoms: _386  and  _389
REMARK  145  A    between atoms: _389  and  _390
REMARK  146  A    between atoms: _390  and  _391
REMARK  147  A    between atoms: _391  and  _392
REMARK  148  A    between atoms: _401  and  _403
REMARK  149  A    between atoms: _403  and  _404
REMARK  150  A    between atoms: _403  and  _406
REMARK  151  A    between atoms: _406  and  _407
REMARK  152  A    between atoms: _410  and  _412
REMARK  153  A    between atoms: _412  and  _413
REMARK  154  A    between atoms: _415  and  _417
REMARK  155  A    between atoms: _417  and  _418
REMARK  156  A    between atoms: _421  and  _423
REMARK  157  A    between atoms: _423  and  _424
REMARK  158  A    between atoms: _423  and  _426
REMARK  159  A    between atoms: _426  and  _427
REMARK  160  A    between atoms: _433  and  _434
REMARK  161  A    between atoms: _439  and  _441
REMARK  162  A    between atoms: _441  and  _442
REMARK  163  A    between atoms: _444  and  _446
REMARK  164  A    between atoms: _446  and  _447
REMARK  165  A    between atoms: _446  and  _449
REMARK  166  A    between atoms: _449  and  _450
REMARK  167  A    between atoms: _456  and  _458
REMARK  168  A    between atoms: _458  and  _459
REMARK  169  A    between atoms: _458  and  _461
REMARK  170  A    between atoms: _461  and  _462
REMARK  171  A    between atoms: _467  and  _469
REMARK  172  A    between atoms: _469  and  _470
REMARK  173  A    between atoms: _469  and  _472
REMARK  174  A    between atoms: _472  and  _473
REMARK  175  A    between atoms: _473  and  _474
REMARK  176  A    between atoms: _474  and  _475
REMARK  177  A    between atoms: _475  and  ZN_601
REMARK  178  A    between atoms: _477  and  _479
REMARK  179  A    between atoms: _479  and  _480
REMARK  180  A    between atoms: _479  and  _482
REMARK  181  A    between atoms: _482  and  _483
REMARK  182  A    between atoms: _483  and  _484
REMARK  183  A    between atoms: _484  and  _485
REMARK  184  A    between atoms: _485  and  _486
REMARK  185  A    between atoms: _490  and  _492
REMARK  186  A    between atoms: _492  and  _493
REMARK  187  A    between atoms: _492  and  _495
REMARK  188  A    between atoms: _495  and  _496
REMARK  189  A    between atoms: _501  and  _502
REMARK  190  A    between atoms: _504  and  _506
REMARK  191  A    between atoms: _506  and  _507
REMARK  192  A    between atoms: _506  and  _509
REMARK  193  A    between atoms: _509  and  _510
REMARK  194  A    between atoms: _515  and  _517
REMARK  195  A    between atoms: _517  and  _518
REMARK  196  A    between atoms: _521  and  _523
REMARK  197  A    between atoms: _523  and  _524
REMARK  198  A    between atoms: _523  and  _526
REMARK  199  A    between atoms: _526  and  _527
REMARK  200  A    between atoms: _530  and  _532
REMARK  201  A    between atoms: _532  and  _533
REMARK  202  A    between atoms: _532  and  _535
REMARK  203  A    between atoms: _538  and  _540
REMARK  204  A    between atoms: _540  and  _541
REMARK  205  A    between atoms: _540  and  _543
REMARK  206  A    between atoms: _543  and  _544
REMARK  207  A    between atoms: _544  and  _545
REMARK  208  A    between atoms: _548  and  _550
REMARK  209  A    between atoms: _550  and  _551
REMARK  210  A    between atoms: _550  and  _553
REMARK  211  A    between atoms: _553  and  _554
REMARK  212  A    between atoms: _559  and  _560
REMARK  213  A    between atoms: _562  and  _564
REMARK  214  A    between atoms: _564  and  _565
REMARK  215  A    between atoms: _564  and  _567
REMARK  216  A    between atoms: _567  and  _568
REMARK  217  A    between atoms: _568  and  _569
REMARK  218  A    between atoms: _569  and  _570
REMARK  219  A    between atoms: _579  and  _581
REMARK  220  A    between atoms: _581  and  _582
REMARK  221  A    between atoms: _581  and  _584
REMARK  222  A    between atoms: _584  and  _585
REMARK  223  A    between atoms: _590  and  _591
REMARK  224  A    between atoms: _593  and  _595
REMARK  225  A    between atoms: _595  and  _596
REMARK  226  A    between atoms: _595  and  _598
REMARK  227  A    between atoms: _598  and  _599
REMARK                            x       y       z     vdW  Elec       q    Type
REMARK                         _______ _______ _______ _____ _____    ______ ____
ROOT
ATOM      1  CB  PHE A   1       3.075  24.200 -23.206  0.00  0.00    +0.051 C 
ENDROOT
BRANCH   1   2
ATOM      2  CG  PHE A   1       2.616  24.868 -21.938  0.00  0.00    -0.020 A 
ATOM      3  CD2 PHE A   1       2.320  24.109 -20.807  0.00  0.00    -0.004 A 
ATOM      4  CE2 PHE A   1       1.896  24.715 -19.628  0.00  0.00    -0.000 A 
ATOM      5  CZ  PHE A   1       1.755  26.098 -19.571  0.00  0.00    -0.000 A 
ATOM      6  CE1 PHE A   1       2.040  26.872 -20.699  0.00  0.00    -0.000 A 
ATOM      7  CD1 PHE A   1       2.470  26.251 -21.877  0.00  0.00    -0.004 A 
ENDBRANCH   1   2
BRANCH   1   8
ATOM      8  CA  PHE A   1       1.935  23.599 -24.030  0.00  0.00    +0.137 C 
BRANCH   8   9
ATOM      9  N   PHE A   1       2.438  23.063 -25.296  0.00  0.00    -0.239 NA
ATOM     10  H   PHE A   1       3.465  22.950 -25.414  0.00  0.00    +0.142 HD
ENDBRANCH   8   9
BRANCH   8  11
ATOM     11  C   PHE A   1       0.799  24.618 -24.155  0.00  0.00    +0.224 C 
ATOM     12  O   PHE A   1      -0.216  24.494 -23.470  0.00  0.00    -0.287 OA
ENDBRANCH   8  11
ENDBRANCH   1   8
TORSDOF 4
REMARK  Name = ../refined-set-2016/2xhm/2xhm_pocket.pdb
REMARK  227 active torsions:
REMARK  status: ('A' for Active; 'I' for Inactive)
REMARK    1  A    between atoms: _1  and  _3
REMARK    2  A    between atoms: _3  and  _4
REMARK    3  A    between atoms: _3  and  _6
REMARK    4  A    between atoms: _6  and  _7
REMARK    5  A    between atoms: _10  and  _12
REMARK    6  A    between atoms: _12  and  _13
REMARK    7  A    between atoms: _12  and  _15
REMARK    8  A    between atoms: _15  and  _16
REMARK    9  A    between atoms: _16  and  _17
REMARK   10  A    between atoms: _20  and  _22
REMARK   11  A    between atoms: _22  and  _23
REMARK   12  A    between atoms: _22  and  _25
REMARK   13  A    between atoms: _25  and  _26
REMARK   14  A    between atoms: _29  and  _31
REMARK   15  A    between atoms: _31  and  _32
REMARK   16  A    between atoms: _31  and  _34
REMARK   17  A    between atoms: _34  and  _35
REMARK   18  A    between atoms: _35  and  _36
REMARK   19  A    between atoms: _39  and  _41
REMARK   20  A    between atoms: _41  and  _42
REMARK   21  A    between atoms: _45  and  _47
REMARK   22  A    between atoms: _47  and  _48
REMARK   23  A    between atoms: _51  and  _53
REMARK   24  A    between atoms: _53  and  _54
REMARK   25  A    between atoms: _53  and  _56
REMARK   26  A    between atoms: _56  and  _57
REMARK   27  A    between atoms: _67  and  _69
REMARK   28  A    between atoms: _69  and  _70
REMARK   29  A    between atoms: _69  and  _72
REMARK   30  A    between atoms: _72  and  _73
REMARK   31  A    between atoms: _73  and  _74
REMARK   32  A    between atoms: _74  and  _75
REMARK   33  A    between atoms: _75  and  _76
REMARK   34  A    between atoms: _80  and  _82
REMARK   35  A    between atoms: _82  and  _83
REMARK   36  A    between atoms: _82  and  _85
REMARK   37  A    between atoms: _85  and  _86
REMARK   38  A    between atoms: _88  and  _90
REMARK   39  A    between atoms: _90  and  _91
REMARK   40  A    between atoms: _90  and  _93
REMARK   41  A    between atoms: _93  and  _94
REMARK   42  A    between atoms: _94  and  _95
REMARK   43  A    between atoms: _98  and  _100
REMARK   44  A    between atoms: _100  and  _101
REMARK   45  A    between atoms: _100  and  _103
REMARK   46  A    between atoms: _103  and  _104
REMARK   47  A    between atoms: _104  and  _105
REMARK   48  A    between atoms: _110  and  _112
REMARK   49  A    between atoms: _112  and  _113
REMARK   50  A    between atoms: _112  and  _115
REMARK   51  A    between atoms: _118  and  _120
REMARK   52  A    between atoms: _120  and  _121
REMARK   53  A    between atoms: _120  and  _123
REMARK   54  A    between atoms: _123  and  _124
REMARK   55  A    between atoms: _129  and  _131
REMARK   56  A    between atoms: _131  and  _132
REMARK   57  A    between atoms: _135  and  _137
REMARK   58  A    between atoms: _137  and  _138
REMARK   59  A    between atoms: _137  and  _140
REMARK   60  A    between atoms: _140  and  _141
REMARK   61  A    between atoms: _143  and  _145
REMARK   62  A    between atoms: _145  and  _146
REMARK   63  A    between atoms: _149  and  _151
REMARK   64  A    between atoms: _151  and  _152
REMARK   65  A    between atoms: _151  and  _154
REMARK   66  A    between atoms: _154  and  _155
REMARK   67  A    between atoms: _165  and  _167
REMARK   68  A    between atoms: _167  and  _168
REMARK   69  A    between atoms: _167  and  _170
REMARK   70  A    between atoms: _170  and  _171
REMARK   71  A    between atoms: _174  and  _176
REMARK   72  A    between atoms: _176  and  _177
REMARK   73  A    between atoms: _176  and  _179
REMARK   74  A    between atoms: _179  and  _180
REMARK   75  A    between atoms: _186  and  _188
REMARK   76  A    between atoms: _188  and  _189
REMARK   77  A    between atoms: _188  and  _191
REMARK   78  A    between atoms: _191  and  _192
REMARK   79  A    between atoms: _197  and  _198
REMARK   80  A    between atoms: _200  and  _202
REMARK   81  A    between atoms: _202  and  _203
REMARK   82  A    between atoms: _202  and  _205
REMARK   83  A    between atoms: _205  and  _206
REMARK   84  A    between atoms: _209  and  _211
REMARK   85  A    between atoms: _211  and  _212
REMARK   86  A    between atoms: _211  and  _214
REMARK   87  A    between atoms: _217  and  _219
REMARK   88  A    between atoms: _219  and  _220
REMARK   89  A    between atoms: _219  and  _222
REMARK   90  A    between atoms: _222  and  _223
REMARK   91  A    between atoms: _223  and  _224
REMARK   92  A    between atoms: _224  and  _225
REMARK   93  A    between atoms: _234  and  _236
REMARK   94  A    between atoms: _236  and  _237
REMARK   95  A    between atoms: _236  and  _239
REMARK   96  A    between atoms: _239  and  _240
REMARK   97  A    between atoms: _243  and  _245
REMARK   98  A    between atoms: _245  and  _246
REMARK   99  A    between atoms: _245  and  _248
REMARK  100  A    between atoms: _248  and  _249
REMARK  101  A    between atoms: _249  and  _250
REMARK  102  A    between atoms: _250  and  _251
REMARK  103  A    between atoms: _251  and  _252
REMARK  104  A    between atoms: _256  and  _258
REMARK  105  A    between atoms: _258  and  _259
REMARK  106  A    between atoms: _258  and  _261
REMARK  107  A    between atoms: _261  and  _262
REMARK  108  A    between atoms: _262  and  _263
REMARK  109  A    between atoms: _268  and  _270
REMARK  110  A    between atoms: _270  and  _271
REMARK  111  A    between atoms: _270  and  _273
REMARK  112  A    between atoms: _273  and  _274
REMARK  113  A    between atoms: _277  and  _279
REMARK  114  A    between atoms: _290  and  _293
REMARK  115  A    between atoms: _293  and  _294
REMARK  116  A    between atoms: _294  and  _295
REMARK  117  A    between atoms: _300  and  _303
REMARK  118  A    between atoms: _303  and  _304
REMARK  119  A    between atoms: _314  and  _315
REMARK  120  A    between atoms: _323  and  _325
REMARK  121  A    between atoms: _325  and  _326
REMARK  122  A    between atoms: _325  and  _328
REMARK  123  A    between atoms: _328  and  _329
REMARK  124  A    between atoms: _332  and  _334
REMARK  125  A    between atoms: _334  and  _335
REMARK  126  A    between atoms: _334  and  _337
REMARK  127  A    between atoms: _337  and  _338
REMARK  128  A    between atoms: _343  and  _344
REMARK  129  A    between atoms: _346  and  _348
REMARK  130  A    between atoms: _348  and  _349
REMARK  131  A    between atoms: _348  and  _351
REMARK  132  A    between atoms: _351  and  _352
REMARK  133  A    between atoms: _358  and  _360
REMARK  134  A    between atoms: _360  and  _361
REMARK  135  A    between atoms: _360  and  _363
REMARK  136  A    between atoms: _363  and  _364
REMARK  137  A    between atoms: _369  and  _370
REMARK  138  A    between atoms: _372  and  _374
REMARK  139  A    between atoms: _374  and  _375
REMARK  140  A    between atoms: _374  and  _377
REMARK  141  A    between atoms: _377  and  _378
REMARK  142  A    between atoms: _384  and  _386
REMARK  143  A    between atoms: _386  and  _387
REMARK  144  A    between atoms: _386  and  _389
REMARK  145  A    between atoms: _389  and  _390
REMARK  146  A    between atoms: _390  and  _391
REMARK  147  A    between atoms: _391  and  _392
REMARK  148  A    between atoms: _401  and  _403
REMARK  149  A    between atoms: _403  and  _404
REMARK  150  A    between atoms: _403  and  _406
REMARK  151  A    between atoms: _406  and  _407
REMARK  152  A    between atoms: _410  and  _412
REMARK  153  A    between atoms: _412  and  _413
REMARK  154  A    between atoms: _415  and  _417
REMARK  155  A    between atoms: _417  and  _418
REMARK  156  A    between atoms: _421  and  _423
REMARK  157  A    between atoms: _423  and  _424
REMARK  158  A    between atoms: _423  and  _426
REMARK  159  A    between atoms: _426  and  _427
REMARK  160  A    between atoms: _433  and  _434
REMARK  161  A    between atoms: _439  and  _441
REMARK  162  A    between atoms: _441  and  _442
REMARK  163  A    between atoms: _444  and  _446
REMARK  164  A    between atoms: _446  and  _447
REMARK  165  A    between atoms: _446  and  _449
REMARK  166  A    between atoms: _449  and  _450
REMARK  167  A    between atoms: _456  and  _458
REMARK  168  A    between atoms: _458  and  _459
REMARK  169  A    between atoms: _458  and  _461
REMARK  170  A    between atoms: _461  and  _462
REMARK  171  A    between atoms: _467  and  _469
REMARK  172  A    between atoms: _469  and  _470
REMARK  173  A    between atoms: _469  and  _472
REMARK  174  A    between atoms: _472  and  _473
REMARK  175  A    between atoms: _473  and  _474
REMARK  176  A    between atoms: _474  and  _475
REMARK  177  A    between atoms: _475  and  ZN_601
REMARK  178  A    between atoms: _477  and  _479
REMARK  179  A    between atoms: _479  and  _480
REMARK  180  A    between atoms: _479  and  _482
REMARK  181  A    between atoms: _482  and  _483
REMARK  182  A    between atoms: _483  and  _484
REMARK  183  A    between atoms: _484  and  _485
REMARK  184  A    between atoms: _485  and  _486
REMARK  185  A    between atoms: _490  and  _492
REMARK  186  A    between atoms: _492  and  _493
REMARK  187  A    between atoms: _492  and  _495
REMARK  188  A    between atoms: _495  and  _496
REMARK  189  A    between atoms: _501  and  _502
REMARK  190  A    between atoms: _504  and  _506
REMARK  191  A    between atoms: _506  and  _507
REMARK  192  A    between atoms: _506  and  _509
REMARK  193  A    between atoms: _509  and  _510
REMARK  194  A    between atoms: _515  and  _517
REMARK  195  A    between atoms: _517  and  _518
REMARK  196  A    between atoms: _521  and  _523
REMARK  197  A    between atoms: _523  and  _524
REMARK  198  A    between atoms: _523  and  _526
REMARK  199  A    between atoms: _526  and  _527
REMARK  200  A    between atoms: _530  and  _532
REMARK  201  A    between atoms: _532  and  _533
REMARK  202  A    between atoms: _532  and  _535
REMARK  203  A    between atoms: _538  and  _540
REMARK  204  A    between atoms: _540  and  _541
REMARK  205  A    between atoms: _540  and  _543
REMARK  206  A    between atoms: _543  and  _544
REMARK  207  A    between atoms: _544  and  _545
REMARK  208  A    between atoms: _548  and  _550
REMARK  209  A    between atoms: _550  and  _551
REMARK  210  A    between atoms: _550  and  _553
REMARK  211  A    between atoms: _553  and  _554
REMARK  212  A    between atoms: _559  and  _560
REMARK  213  A    between atoms: _562  and  _564
REMARK  214  A    between atoms: _564  and  _565
REMARK  215  A    between atoms: _564  and  _567
REMARK  216  A    between atoms: _567  and  _568
REMARK  217  A    between atoms: _568  and  _569
REMARK  218  A    between atoms: _569  and  _570
REMARK  219  A    between atoms: _579  and  _581
REMARK  220  A    between atoms: _581  and  _582
REMARK  221  A    between atoms: _581  and  _584
REMARK  222  A    between atoms: _584  and  _585
REMARK  223  A    between atoms: _590  and  _591
REMARK  224  A    between atoms: _593  and  _595
REMARK  225  A    between atoms: _595  and  _596
REMARK  226  A    between atoms: _595  and  _598
REMARK  227  A    between atoms: _598  and  _599
REMARK                            x       y       z     vdW  Elec       q    Type
REMARK                         _______ _______ _______ _____ _____    ______ ____
ROOT
ATOM      1  CA  TYR A   2     -16.025  29.507  -3.647  0.00  0.00    +0.153 C 
ENDROOT
BRANCH   1   3
ATOM      2  C   LYS A   1     -17.785  31.205  -3.482  0.00  0.00    +0.238 C 
ATOM      3  N   TYR A   2     -17.427  29.920  -3.510  0.00  0.00    -0.297 N 
ATOM      4  H   TYR A   2     -18.163  29.189  -3.432  0.00  0.00    +0.150 HD
ATOM      5  O   LYS A   1     -16.994  32.132  -3.693  0.00  0.00    -0.274 OA
BRANCH   2   6
ATOM      6  CA  LYS A   1     -19.256  31.497  -3.184  0.00  0.00    +0.145 C 
BRANCH   6   7
ATOM      7  N   LYS A   1     -19.325  32.486  -2.106  0.00  0.00    -0.238 NA
ATOM      8  H   LYS A   1     -19.320  33.498  -2.346  0.00  0.00    +0.142 HD
ENDBRANCH   6   7
BRANCH   6   9
ATOM      9  CB  LYS A   1     -19.971  32.010  -4.444  0.00  0.00    +0.026 C 
BRANCH   9  10
ATOM     10  CG  LYS A   1     -19.879  31.081  -5.666  0.00  0.00    -0.000 C 
BRANCH  10  11
ATOM     11  CD  LYS A   1     -20.630  29.773  -5.447  0.00  0.00    -0.024 C 
BRANCH  11  12
ATOM     12  CE  LYS A   1     -20.266  28.744  -6.510  0.00  0.00    -0.086 C 
BRANCH  12  13
ATOM     13  NZ  LYS A   1     -20.559  27.346  -6.068  0.00  0.00    +0.380 N 
ATOM     14  HZ1 LYS A   1     -20.011  27.133  -5.210  0.00  0.00    -0.089 HD
ATOM     15  HZ2 LYS A   1     -21.575  27.254  -5.863  0.00  0.00    -0.089 HD
ATOM     16  HZ3 LYS A   1     -20.295  26.682  -6.824  0.00  0.00    -0.089 HD
ENDBRANCH  12  13
ENDBRANCH  11  12
ENDBRANCH  10  11
ENDBRANCH   9  10
ENDBRANCH   6   9
ENDBRANCH   2   6
ENDBRANCH   1   3
BRANCH   1  17
ATOM     17  C   TYR A   2     -15.294  30.227  -4.783  0.00  0.00    +0.241 C 
ATOM     18  O   TYR A   2     -14.252  30.834  -4.562  0.00  0.00    -0.273 OA
ATOM     19  N   HIS A   3     -15.858  30.160  -5.986  0.00  0.00    -0.298 N 
ATOM     20  H   HIS A   3     -16.774  29.677  -6.085  0.00  0.00    +0.150 HD
BRANCH  19  21
ATOM     21  CA  HIS A   3     -15.234  30.743  -7.176  0.00  0.00    +0.143 C 
BRANCH  21  22
ATOM     22  C   HIS A   3     -14.941  32.232  -7.042  0.00  0.00    +0.227 C 
ATOM     23  O   HIS A   3     -14.012  32.743  -7.676  0.00  0.00    -0.286 OA
ENDBRANCH  21  22
BRANCH  21  24
ATOM     24  CB  HIS A   3     -16.101  30.488  -8.411  0.00  0.00    +0.075 C 
BRANCH  24  25
ATOM     25  CG  HIS A   3     -16.238  29.040  -8.759  0.00  0.00    +0.082 A 
ATOM     26  ND1 HIS A   3     -16.932  28.149  -7.971  0.00  0.00    -0.227 NA
ATOM     27  CE1 HIS A   3     -16.890  26.950  -8.524  0.00  0.00    +0.199 A 
ATOM     28  NE2 HIS A   3     -16.194  27.032  -9.644  0.00  0.00    -0.221 NA
ATOM     29  CD2 HIS A   3     -15.774  28.328  -9.813  0.00  0.00    +0.115 A 
ENDBRANCH  24  25
ENDBRANCH  21  24
ENDBRANCH  19  21
ENDBRANCH   1  17
BRANCH   1  30
ATOM     30  CB  TYR A   2     -15.894  27.987  -3.818  0.00  0.00    +0.055 C 
BRANCH  30  31
ATOM     31  CG  TYR A   2     -14.482  27.562  -4.164  0.00  0.00    -0.020 A 
ATOM     32  CD2 TYR A   2     -13.484  27.535  -3.186  0.00  0.00    -0.001 A 
ATOM     33  CE2 TYR A   2     -12.182  27.167  -3.498  0.00  0.00    +0.036 A 
ATOM     34  CZ  TYR A   2     -11.859  26.823  -4.799  0.00  0.00    +0.134 A 
ATOM     35  CE1 TYR A   2     -12.824  26.849  -5.798  0.00  0.00    +0.036 A 
ATOM     36  CD1 TYR A   2     -14.132  27.221  -5.475  0.00  0.00    -0.001 A 
BRANCH  34  37
ATOM     37  OH  TYR A   2     -10.565  26.462  -5.097  0.00  0.00    -0.506 OA
ATOM     38  HH  TYR A   2     -10.016  26.498  -4.274  0.00  0.00    +0.292 HD
ENDBRANCH  34  37
ENDBRANCH  30  31
ENDBRANCH   1  30
TORSDOF 16
REMARK  Name = ../refined-set-2016/2xhm/2xhm_pocket.pdb
REMARK  227 active torsions:
REMARK  status: ('A' for Active; 'I' for Inactive)
REMARK    1  A    between atoms: _1  and  _3
REMARK    2  A    between atoms: _3  and  _4
REMARK    3  A    between atoms: _3  and  _6
REMARK    4  A    between atoms: _6  and  _7
REMARK    5  A    between atoms: _10  and  _12
REMARK    6  A    between atoms: _12  and  _13
REMARK    7  A    between atoms: _12  and  _15
REMARK    8  A    between atoms: _15  and  _16
REMARK    9  A    between atoms: _16  and  _17
REMARK   10  A    between atoms: _20  and  _22
REMARK   11  A    between atoms: _22  and  _23
REMARK   12  A    between atoms: _22  and  _25
REMARK   13  A    between atoms: _25  and  _26
REMARK   14  A    between atoms: _29  and  _31
REMARK   15  A    between atoms: _31  and  _32
REMARK   16  A    between atoms: _31  and  _34
REMARK   17  A    between atoms: _34  and  _35
REMARK   18  A    between atoms: _35  and  _36
REMARK   19  A    between atoms: _39  and  _41
REMARK   20  A    between atoms: _41  and  _42
REMARK   21  A    between atoms: _45  and  _47
REMARK   22  A    between atoms: _47  and  _48
REMARK   23  A    between atoms: _51  and  _53
REMARK   24  A    between atoms: _53  and  _54
REMARK   25  A    between atoms: _53  and  _56
REMARK   26  A    between atoms: _56  and  _57
REMARK   27  A    between atoms: _67  and  _69
REMARK   28  A    between atoms: _69  and  _70
REMARK   29  A    between atoms: _69  and  _72
REMARK   30  A    between atoms: _72  and  _73
REMARK   31  A    between atoms: _73  and  _74
REMARK   32  A    between atoms: _74  and  _75
REMARK   33  A    between atoms: _75  and  _76
REMARK   34  A    between atoms: _80  and  _82
REMARK   35  A    between atoms: _82  and  _83
REMARK   36  A    between atoms: _82  and  _85
REMARK   37  A    between atoms: _85  and  _86
REMARK   38  A    between atoms: _88  and  _90
REMARK   39  A    between atoms: _90  and  _91
REMARK   40  A    between atoms: _90  and  _93
REMARK   41  A    between atoms: _93  and  _94
REMARK   42  A    between atoms: _94  and  _95
REMARK   43  A    between atoms: _98  and  _100
REMARK   44  A    between atoms: _100  and  _101
REMARK   45  A    between atoms: _100  and  _103
REMARK   46  A    between atoms: _103  and  _104
REMARK   47  A    between atoms: _104  and  _105
REMARK   48  A    between atoms: _110  and  _112
REMARK   49  A    between atoms: _112  and  _113
REMARK   50  A    between atoms: _112  and  _115
REMARK   51  A    between atoms: _118  and  _120
REMARK   52  A    between atoms: _120  and  _121
REMARK   53  A    between atoms: _120  and  _123
REMARK   54  A    between atoms: _123  and  _124
REMARK   55  A    between atoms: _129  and  _131
REMARK   56  A    between atoms: _131  and  _132
REMARK   57  A    between atoms: _135  and  _137
REMARK   58  A    between atoms: _137  and  _138
REMARK   59  A    between atoms: _137  and  _140
REMARK   60  A    between atoms: _140  and  _141
REMARK   61  A    between atoms: _143  and  _145
REMARK   62  A    between atoms: _145  and  _146
REMARK   63  A    between atoms: _149  and  _151
REMARK   64  A    between atoms: _151  and  _152
REMARK   65  A    between atoms: _151  and  _154
REMARK   66  A    between atoms: _154  and  _155
REMARK   67  A    between atoms: _165  and  _167
REMARK   68  A    between atoms: _167  and  _168
REMARK   69  A    between atoms: _167  and  _170
REMARK   70  A    between atoms: _170  and  _171
REMARK   71  A    between atoms: _174  and  _176
REMARK   72  A    between atoms: _176  and  _177
REMARK   73  A    between atoms: _176  and  _179
REMARK   74  A    between atoms: _179  and  _180
REMARK   75  A    between atoms: _186  and  _188
REMARK   76  A    between atoms: _188  and  _189
REMARK   77  A    between atoms: _188  and  _191
REMARK   78  A    between atoms: _191  and  _192
REMARK   79  A    between atoms: _197  and  _198
REMARK   80  A    between atoms: _200  and  _202
REMARK   81  A    between atoms: _202  and  _203
REMARK   82  A    between atoms: _202  and  _205
REMARK   83  A    between atoms: _205  and  _206
REMARK   84  A    between atoms: _209  and  _211
REMARK   85  A    between atoms: _211  and  _212
REMARK   86  A    between atoms: _211  and  _214
REMARK   87  A    between atoms: _217  and  _219
REMARK   88  A    between atoms: _219  and  _220
REMARK   89  A    between atoms: _219  and  _222
REMARK   90  A    between atoms: _222  and  _223
REMARK   91  A    between atoms: _223  and  _224
REMARK   92  A    between atoms: _224  and  _225
REMARK   93  A    between atoms: _234  and  _236
REMARK   94  A    between atoms: _236  and  _237
REMARK   95  A    between atoms: _236  and  _239
REMARK   96  A    between atoms: _239  and  _240
REMARK   97  A    between atoms: _243  and  _245
REMARK   98  A    between atoms: _245  and  _246
REMARK   99  A    between atoms: _245  and  _248
REMARK  100  A    between atoms: _248  and  _249
REMARK  101  A    between atoms: _249  and  _250
REMARK  102  A    between atoms: _250  and  _251
REMARK  103  A    between atoms: _251  and  _252
REMARK  104  A    between atoms: _256  and  _258
REMARK  105  A    between atoms: _258  and  _259
REMARK  106  A    between atoms: _258  and  _261
REMARK  107  A    between atoms: _261  and  _262
REMARK  108  A    between atoms: _262  and  _263
REMARK  109  A    between atoms: _268  and  _270
REMARK  110  A    between atoms: _270  and  _271
REMARK  111  A    between atoms: _270  and  _273
REMARK  112  A    between atoms: _273  and  _274
REMARK  113  A    between atoms: _277  and  _279
REMARK  114  A    between atoms: _290  and  _293
REMARK  115  A    between atoms: _293  and  _294
REMARK  116  A    between atoms: _294  and  _295
REMARK  117  A    between atoms: _300  and  _303
REMARK  118  A    between atoms: _303  and  _304
REMARK  119  A    between atoms: _314  and  _315
REMARK  120  A    between atoms: _323  and  _325
REMARK  121  A    between atoms: _325  and  _326
REMARK  122  A    between atoms: _325  and  _328
REMARK  123  A    between atoms: _328  and  _329
REMARK  124  A    between atoms: _332  and  _334
REMARK  125  A    between atoms: _334  and  _335
REMARK  126  A    between atoms: _334  and  _337
REMARK  127  A    between atoms: _337  and  _338
REMARK  128  A    between atoms: _343  and  _344
REMARK  129  A    between atoms: _346  and  _348
REMARK  130  A    between atoms: _348  and  _349
REMARK  131  A    between atoms: _348  and  _351
REMARK  132  A    between atoms: _351  and  _352
REMARK  133  A    between atoms: _358  and  _360
REMARK  134  A    between atoms: _360  and  _361
REMARK  135  A    between atoms: _360  and  _363
REMARK  136  A    between atoms: _363  and  _364
REMARK  137  A    between atoms: _369  and  _370
REMARK  138  A    between atoms: _372  and  _374
REMARK  139  A    between atoms: _374  and  _375
REMARK  140  A    between atoms: _374  and  _377
REMARK  141  A    between atoms: _377  and  _378
REMARK  142  A    between atoms: _384  and  _386
REMARK  143  A    between atoms: _386  and  _387
REMARK  144  A    between atoms: _386  and  _389
REMARK  145  A    between atoms: _389  and  _390
REMARK  146  A    between atoms: _390  and  _391
REMARK  147  A    between atoms: _391  and  _392
REMARK  148  A    between atoms: _401  and  _403
REMARK  149  A    between atoms: _403  and  _404
REMARK  150  A    between atoms: _403  and  _406
REMARK  151  A    between atoms: _406  and  _407
REMARK  152  A    between atoms: _410  and  _412
REMARK  153  A    between atoms: _412  and  _413
REMARK  154  A    between atoms: _415  and  _417
REMARK  155  A    between atoms: _417  and  _418
REMARK  156  A    between atoms: _421  and  _423
REMARK  157  A    between atoms: _423  and  _424
REMARK  158  A    between atoms: _423  and  _426
REMARK  159  A    between atoms: _426  and  _427
REMARK  160  A    between atoms: _433  and  _434
REMARK  161  A    between atoms: _439  and  _441
REMARK  162  A    between atoms: _441  and  _442
REMARK  163  A    between atoms: _444  and  _446
REMARK  164  A    between atoms: _446  and  _447
REMARK  165  A    between atoms: _446  and  _449
REMARK  166  A    between atoms: _449  and  _450
REMARK  167  A    between atoms: _456  and  _458
REMARK  168  A    between atoms: _458  and  _459
REMARK  169  A    between atoms: _458  and  _461
REMARK  170  A    between atoms: _461  and  _462
REMARK  171  A    between atoms: _467  and  _469
REMARK  172  A    between atoms: _469  and  _470
REMARK  173  A    between atoms: _469  and  _472
REMARK  174  A    between atoms: _472  and  _473
REMARK  175  A    between atoms: _473  and  _474
REMARK  176  A    between atoms: _474  and  _475
REMARK  177  A    between atoms: _475  and  ZN_601
REMARK  178  A    between atoms: _477  and  _479
REMARK  179  A    between atoms: _479  and  _480
REMARK  180  A    between atoms: _479  and  _482
REMARK  181  A    between atoms: _482  and  _483
REMARK  182  A    between atoms: _483  and  _484
REMARK  183  A    between atoms: _484  and  _485
REMARK  184  A    between atoms: _485  and  _486
REMARK  185  A    between atoms: _490  and  _492
REMARK  186  A    between atoms: _492  and  _493
REMARK  187  A    between atoms: _492  and  _495
REMARK  188  A    between atoms: _495  and  _496
REMARK  189  A    between atoms: _501  and  _502
REMARK  190  A    between atoms: _504  and  _506
REMARK  191  A    between atoms: _506  and  _507
REMARK  192  A    between atoms: _506  and  _509
REMARK  193  A    between atoms: _509  and  _510
REMARK  194  A    between atoms: _515  and  _517
REMARK  195  A    between atoms: _517  and  _518
REMARK  196  A    between atoms: _521  and  _523
REMARK  197  A    between atoms: _523  and  _524
REMARK  198  A    between atoms: _523  and  _526
REMARK  199  A    between atoms: _526  and  _527
REMARK  200  A    between atoms: _530  and  _532
REMARK  201  A    between atoms: _532  and  _533
REMARK  202  A    between atoms: _532  and  _535
REMARK  203  A    between atoms: _538  and  _540
REMARK  204  A    between atoms: _540  and  _541
REMARK  205  A    between atoms: _540  and  _543
REMARK  206  A    between atoms: _543  and  _544
REMARK  207  A    between atoms: _544  and  _545
REMARK  208  A    between atoms: _548  and  _550
REMARK  209  A    between atoms: _550  and  _551
REMARK  210  A    between atoms: _550  and  _553
REMARK  211  A    between atoms: _553  and  _554
REMARK  212  A    between atoms: _559  and  _560
REMARK  213  A    between atoms: _562  and  _564
REMARK  214  A    between atoms: _564  and  _565
REMARK  215  A    between atoms: _564  and  _567
REMARK  216  A    between atoms: _567  and  _568
REMARK  217  A    between atoms: _568  and  _569
REMARK  218  A    between atoms: _569  and  _570
REMARK  219  A    between atoms: _579  and  _581
REMARK  220  A    between atoms: _581  and  _582
REMARK  221  A    between atoms: _581  and  _584
REMARK  222  A    between atoms: _584  and  _585
REMARK  223  A    between atoms: _590  and  _591
REMARK  224  A    between atoms: _593  and  _595
REMARK  225  A    between atoms: _595  and  _596
REMARK  226  A    between atoms: _595  and  _598
REMARK  227  A    between atoms: _598  and  _599
REMARK                            x       y       z     vdW  Elec       q    Type
REMARK                         _______ _______ _______ _____ _____    ______ ____
ROOT
ATOM      1  C   VAL A   3     -13.337  32.136 -11.626  0.00  0.00    +0.241 C 
ATOM      2  O   VAL A   3     -14.431  32.330 -11.103  0.00  0.00    -0.273 OA
ATOM      3  N   GLU A   4     -13.067  32.431 -12.897  0.00  0.00    -0.297 N 
ATOM      4  H   GLU A   4     -12.097  32.292 -13.245  0.00  0.00    +0.150 HD
ENDROOT
BRANCH   3   5
ATOM      5  CA  GLU A   4     -14.076  32.942 -13.822  0.00  0.00    +0.149 C 
BRANCH   5   6
ATOM      6  C   GLU A   4     -15.276  31.982 -13.872  0.00  0.00    +0.241 C 
ATOM      7  O   GLU A   4     -15.100  30.764 -13.848  0.00  0.00    -0.273 OA
ATOM      8  N   TYR A   5     -16.489  32.528 -13.914  0.00  0.00    -0.298 N 
ATOM      9  H   TYR A   5     -16.584  33.558 -14.019  0.00  0.00    +0.150 HD
BRANCH   8  10
ATOM     10  CA  TYR A   5     -17.692  31.698 -13.814  0.00  0.00    +0.141 C 
BRANCH  10  11
ATOM     11  C   TYR A   5     -18.476  31.550 -15.116  0.00  0.00    +0.227 C 
ATOM     12  O   TYR A   5     -19.269  30.621 -15.258  0.00  0.00    -0.286 OA
ENDBRANCH  10  11
BRANCH  10  13
ATOM     13  CB  TYR A   5     -18.620  32.193 -12.699  0.00  0.00    +0.054 C 
BRANCH  13  14
ATOM     14  CG  TYR A   5     -19.348  31.063 -12.006  0.00  0.00    -0.020 A 
ATOM     15  CD2 TYR A   5     -18.716  30.319 -11.007  0.00  0.00    -0.001 A 
ATOM     16  CE2 TYR A   5     -19.363  29.266 -10.376  0.00  0.00    +0.036 A 
ATOM     17  CZ  TYR A   5     -20.664  28.948 -10.737  0.00  0.00    +0.134 A 
ATOM     18  CE1 TYR A   5     -21.317  29.660 -11.730  0.00  0.00    +0.036 A 
ATOM     19  CD1 TYR A   5     -20.651  30.721 -12.362  0.00  0.00    -0.001 A 
BRANCH  17  20
ATOM     20  OH  TYR A   5     -21.297  27.906 -10.113  0.00  0.00    -0.506 OA
ATOM     21  HH  TYR A   5     -20.692  27.512  -9.436  0.00  0.00    +0.292 HD
ENDBRANCH  17  20
ENDBRANCH  13  14
ENDBRANCH  10  13
ENDBRANCH   8  10
ENDBRANCH   5   6
BRANCH   5  22
ATOM     22  CB  GLU A   4     -13.441  33.145 -15.207  0.00  0.00    +0.041 C 
BRANCH  22  23
ATOM     23  CG  GLU A   4     -14.358  33.755 -16.265  0.00  0.00    +0.116 C 
BRANCH  23  24
ATOM     24  CD  GLU A   4     -14.963  32.722 -17.199  0.00  0.00    +0.365 C 
ATOM     25  OE2 GLU A   4     -15.120  31.555 -16.784  0.00  0.00    -0.246 OA
ATOM     26  OE1 GLU A   4     -15.280  33.083 -18.358  0.00  0.00    -0.246 OA
ENDBRANCH  23  24
ENDBRANCH  22  23
ENDBRANCH   5  22
ENDBRANCH   3   5
BRANCH   1  27
ATOM     27  CA  VAL A   3     -12.188  31.562 -10.814  0.00  0.00    +0.149 C 
BRANCH  27  29
ATOM     28  C   ASP A   2     -10.820  33.120  -9.532  0.00  0.00    +0.241 C 
ATOM     29  N   VAL A   3     -11.958  32.456  -9.686  0.00  0.00    -0.297 N 
ATOM     30  H   VAL A   3     -12.711  32.577  -8.979  0.00  0.00    +0.150 HD
ATOM     31  O   ASP A   2      -9.850  32.958 -10.273  0.00  0.00    -0.273 OA
BRANCH  28  32
ATOM     32  CA  ASP A   2     -10.775  34.094  -8.340  0.00  0.00    +0.160 C 
BRANCH  32  34
ATOM     33  C   ALA A   1     -10.383  32.346  -6.646  0.00  0.00    +0.238 C 
ATOM     34  N   ASP A   2     -11.067  33.414  -7.060  0.00  0.00    -0.297 N 
ATOM     35  H   ASP A   2     -11.833  33.782  -6.461  0.00  0.00    +0.150 HD
ATOM     36  O   ALA A   1      -9.464  31.841  -7.296  0.00  0.00    -0.274 OA
BRANCH  33  37
ATOM     37  CA  ALA A   1     -10.780  31.743  -5.293  0.00  0.00    +0.145 C 
ATOM     38  CB  ALA A   1     -11.030  30.249  -5.437  0.00  0.00    +0.028 C 
BRANCH  37  39
ATOM     39  N   ALA A   1     -11.927  32.389  -4.652  0.00  0.00    -0.238 NA
ATOM     40  H   ALA A   1     -12.884  32.047  -4.874  0.00  0.00    +0.142 HD
ENDBRANCH  37  39
ENDBRANCH  33  37
ENDBRANCH  32  34
BRANCH  32  41
ATOM     41  CB  ASP A   2      -9.437  34.867  -8.268  0.00  0.00    +0.143 C 
BRANCH  41  42
ATOM     42  CG  ASP A   2      -9.074  35.576  -9.586  0.00  0.00    +0.367 C 
ATOM     43  OD2 ASP A   2      -7.869  35.634  -9.911  0.00  0.00    -0.246 OA
ATOM     44  OD1 ASP A   2      -9.982  36.080 -10.284  0.00  0.00    -0.246 OA
ENDBRANCH  41  42
ENDBRANCH  32  41
ENDBRANCH  28  32
ENDBRANCH  27  29
BRANCH  27  45
ATOM     45  CB  VAL A   3     -12.517  30.117 -10.360  0.00  0.00    +0.027 C 
ATOM     46  CG2 VAL A   3     -11.385  29.554  -9.522  0.00  0.00    +0.002 C 
ATOM     47  CG1 VAL A   3     -12.774  29.209 -11.562  0.00  0.00    +0.002 C 
ENDBRANCH  27  45
ENDBRANCH   1  27
TORSDOF 19
REMARK  Name = ../refined-set-2016/2xhm/2xhm_pocket.pdb
REMARK  227 active torsions:
REMARK  status: ('A' for Active; 'I' for Inactive)
REMARK    1  A    between atoms: _1  and  _3
REMARK    2  A    between atoms: _3  and  _4
REMARK    3  A    between atoms: _3  and  _6
REMARK    4  A    between atoms: _6  and  _7
REMARK    5  A    between atoms: _10  and  _12
REMARK    6  A    between atoms: _12  and  _13
REMARK    7  A    between atoms: _12  and  _15
REMARK    8  A    between atoms: _15  and  _16
REMARK    9  A    between atoms: _16  and  _17
REMARK   10  A    between atoms: _20  and  _22
REMARK   11  A    between atoms: _22  and  _23
REMARK   12  A    between atoms: _22  and  _25
REMARK   13  A    between atoms: _25  and  _26
REMARK   14  A    between atoms: _29  and  _31
REMARK   15  A    between atoms: _31  and  _32
REMARK   16  A    between atoms: _31  and  _34
REMARK   17  A    between atoms: _34  and  _35
REMARK   18  A    between atoms: _35  and  _36
REMARK   19  A    between atoms: _39  and  _41
REMARK   20  A    between atoms: _41  and  _42
REMARK   21  A    between atoms: _45  and  _47
REMARK   22  A    between atoms: _47  and  _48
REMARK   23  A    between atoms: _51  and  _53
REMARK   24  A    between atoms: _53  and  _54
REMARK   25  A    between atoms: _53  and  _56
REMARK   26  A    between atoms: _56  and  _57
REMARK   27  A    between atoms: _67  and  _69
REMARK   28  A    between atoms: _69  and  _70
REMARK   29  A    between atoms: _69  and  _72
REMARK   30  A    between atoms: _72  and  _73
REMARK   31  A    between atoms: _73  and  _74
REMARK   32  A    between atoms: _74  and  _75
REMARK   33  A    between atoms: _75  and  _76
REMARK   34  A    between atoms: _80  and  _82
REMARK   35  A    between atoms: _82  and  _83
REMARK   36  A    between atoms: _82  and  _85
REMARK   37  A    between atoms: _85  and  _86
REMARK   38  A    between atoms: _88  and  _90
REMARK   39  A    between atoms: _90  and  _91
REMARK   40  A    between atoms: _90  and  _93
REMARK   41  A    between atoms: _93  and  _94
REMARK   42  A    between atoms: _94  and  _95
REMARK   43  A    between atoms: _98  and  _100
REMARK   44  A    between atoms: _100  and  _101
REMARK   45  A    between atoms: _100  and  _103
REMARK   46  A    between atoms: _103  and  _104
REMARK   47  A    between atoms: _104  and  _105
REMARK   48  A    between atoms: _110  and  _112
REMARK   49  A    between atoms: _112  and  _113
REMARK   50  A    between atoms: _112  and  _115
REMARK   51  A    between atoms: _118  and  _120
REMARK   52  A    between atoms: _120  and  _121
REMARK   53  A    between atoms: _120  and  _123
REMARK   54  A    between atoms: _123  and  _124
REMARK   55  A    between atoms: _129  and  _131
REMARK   56  A    between atoms: _131  and  _132
REMARK   57  A    between atoms: _135  and  _137
REMARK   58  A    between atoms: _137  and  _138
REMARK   59  A    between atoms: _137  and  _140
REMARK   60  A    between atoms: _140  and  _141
REMARK   61  A    between atoms: _143  and  _145
REMARK   62  A    between atoms: _145  and  _146
REMARK   63  A    between atoms: _149  and  _151
REMARK   64  A    between atoms: _151  and  _152
REMARK   65  A    between atoms: _151  and  _154
REMARK   66  A    between atoms: _154  and  _155
REMARK   67  A    between atoms: _165  and  _167
REMARK   68  A    between atoms: _167  and  _168
REMARK   69  A    between atoms: _167  and  _170
REMARK   70  A    between atoms: _170  and  _171
REMARK   71  A    between atoms: _174  and  _176
REMARK   72  A    between atoms: _176  and  _177
REMARK   73  A    between atoms: _176  and  _179
REMARK   74  A    between atoms: _179  and  _180
REMARK   75  A    between atoms: _186  and  _188
REMARK   76  A    between atoms: _188  and  _189
REMARK   77  A    between atoms: _188  and  _191
REMARK   78  A    between atoms: _191  and  _192
REMARK   79  A    between atoms: _197  and  _198
REMARK   80  A    between atoms: _200  and  _202
REMARK   81  A    between atoms: _202  and  _203
REMARK   82  A    between atoms: _202  and  _205
REMARK   83  A    between atoms: _205  and  _206
REMARK   84  A    between atoms: _209  and  _211
REMARK   85  A    between atoms: _211  and  _212
REMARK   86  A    between atoms: _211  and  _214
REMARK   87  A    between atoms: _217  and  _219
REMARK   88  A    between atoms: _219  and  _220
REMARK   89  A    between atoms: _219  and  _222
REMARK   90  A    between atoms: _222  and  _223
REMARK   91  A    between atoms: _223  and  _224
REMARK   92  A    between atoms: _224  and  _225
REMARK   93  A    between atoms: _234  and  _236
REMARK   94  A    between atoms: _236  and  _237
REMARK   95  A    between atoms: _236  and  _239
REMARK   96  A    between atoms: _239  and  _240
REMARK   97  A    between atoms: _243  and  _245
REMARK   98  A    between atoms: _245  and  _246
REMARK   99  A    between atoms: _245  and  _248
REMARK  100  A    between atoms: _248  and  _249
REMARK  101  A    between atoms: _249  and  _250
REMARK  102  A    between atoms: _250  and  _251
REMARK  103  A    between atoms: _251  and  _252
REMARK  104  A    between atoms: _256  and  _258
REMARK  105  A    between atoms: _258  and  _259
REMARK  106  A    between atoms: _258  and  _261
REMARK  107  A    between atoms: _261  and  _262
REMARK  108  A    between atoms: _262  and  _263
REMARK  109  A    between atoms: _268  and  _270
REMARK  110  A    between atoms: _270  and  _271
REMARK  111  A    between atoms: _270  and  _273
REMARK  112  A    between atoms: _273  and  _274
REMARK  113  A    between atoms: _277  and  _279
REMARK  114  A    between atoms: _290  and  _293
REMARK  115  A    between atoms: _293  and  _294
REMARK  116  A    between atoms: _294  and  _295
REMARK  117  A    between atoms: _300  and  _303
REMARK  118  A    between atoms: _303  and  _304
REMARK  119  A    between atoms: _314  and  _315
REMARK  120  A    between atoms: _323  and  _325
REMARK  121  A    between atoms: _325  and  _326
REMARK  122  A    between atoms: _325  and  _328
REMARK  123  A    between atoms: _328  and  _329
REMARK  124  A    between atoms: _332  and  _334
REMARK  125  A    between atoms: _334  and  _335
REMARK  126  A    between atoms: _334  and  _337
REMARK  127  A    between atoms: _337  and  _338
REMARK  128  A    between atoms: _343  and  _344
REMARK  129  A    between atoms: _346  and  _348
REMARK  130  A    between atoms: _348  and  _349
REMARK  131  A    between atoms: _348  and  _351
REMARK  132  A    between atoms: _351  and  _352
REMARK  133  A    between atoms: _358  and  _360
REMARK  134  A    between atoms: _360  and  _361
REMARK  135  A    between atoms: _360  and  _363
REMARK  136  A    between atoms: _363  and  _364
REMARK  137  A    between atoms: _369  and  _370
REMARK  138  A    between atoms: _372  and  _374
REMARK  139  A    between atoms: _374  and  _375
REMARK  140  A    between atoms: _374  and  _377
REMARK  141  A    between atoms: _377  and  _378
REMARK  142  A    between atoms: _384  and  _386
REMARK  143  A    between atoms: _386  and  _387
REMARK  144  A    between atoms: _386  and  _389
REMARK  145  A    between atoms: _389  and  _390
REMARK  146  A    between atoms: _390  and  _391
REMARK  147  A    between atoms: _391  and  _392
REMARK  148  A    between atoms: _401  and  _403
REMARK  149  A    between atoms: _403  and  _404
REMARK  150  A    between atoms: _403  and  _406
REMARK  151  A    between atoms: _406  and  _407
REMARK  152  A    between atoms: _410  and  _412
REMARK  153  A    between atoms: _412  and  _413
REMARK  154  A    between atoms: _415  and  _417
REMARK  155  A    between atoms: _417  and  _418
REMARK  156  A    between atoms: _421  and  _423
REMARK  157  A    between atoms: _423  and  _424
REMARK  158  A    between atoms: _423  and  _426
REMARK  159  A    between atoms: _426  and  _427
REMARK  160  A    between atoms: _433  and  _434
REMARK  161  A    between atoms: _439  and  _441
REMARK  162  A    between atoms: _441  and  _442
REMARK  163  A    between atoms: _444  and  _446
REMARK  164  A    between atoms: _446  and  _447
REMARK  165  A    between atoms: _446  and  _449
REMARK  166  A    between atoms: _449  and  _450
REMARK  167  A    between atoms: _456  and  _458
REMARK  168  A    between atoms: _458  and  _459
REMARK  169  A    between atoms: _458  and  _461
REMARK  170  A    between atoms: _461  and  _462
REMARK  171  A    between atoms: _467  and  _469
REMARK  172  A    between atoms: _469  and  _470
REMARK  173  A    between atoms: _469  and  _472
REMARK  174  A    between atoms: _472  and  _473
REMARK  175  A    between atoms: _473  and  _474
REMARK  176  A    between atoms: _474  and  _475
REMARK  177  A    between atoms: _475  and  ZN_601
REMARK  178  A    between atoms: _477  and  _479
REMARK  179  A    between atoms: _479  and  _480
REMARK  180  A    between atoms: _479  and  _482
REMARK  181  A    between atoms: _482  and  _483
REMARK  182  A    between atoms: _483  and  _484
REMARK  183  A    between atoms: _484  and  _485
REMARK  184  A    between atoms: _485  and  _486
REMARK  185  A    between atoms: _490  and  _492
REMARK  186  A    between atoms: _492  and  _493
REMARK  187  A    between atoms: _492  and  _495
REMARK  188  A    between atoms: _495  and  _496
REMARK  189  A    between atoms: _501  and  _502
REMARK  190  A    between atoms: _504  and  _506
REMARK  191  A    between atoms: _506  and  _507
REMARK  192  A    between atoms: _506  and  _509
REMARK  193  A    between atoms: _509  and  _510
REMARK  194  A    between atoms: _515  and  _517
REMARK  195  A    between atoms: _517  and  _518
REMARK  196  A    between atoms: _521  and  _523
REMARK  197  A    between atoms: _523  and  _524
REMARK  198  A    between atoms: _523  and  _526
REMARK  199  A    between atoms: _526  and  _527
REMARK  200  A    between atoms: _530  and  _532
REMARK  201  A    between atoms: _532  and  _533
REMARK  202  A    between atoms: _532  and  _535
REMARK  203  A    between atoms: _538  and  _540
REMARK  204  A    between atoms: _540  and  _541
REMARK  205  A    between atoms: _540  and  _543
REMARK  206  A    between atoms: _543  and  _544
REMARK  207  A    between atoms: _544  and  _545
REMARK  208  A    between atoms: _548  and  _550
REMARK  209  A    between atoms: _550  and  _551
REMARK  210  A    between atoms: _550  and  _553
REMARK  211  A    between atoms: _553  and  _554
REMARK  212  A    between atoms: _559  and  _560
REMARK  213  A    between atoms: _562  and  _564
REMARK  214  A    between atoms: _564  and  _565
REMARK  215  A    between atoms: _564  and  _567
REMARK  216  A    between atoms: _567  and  _568
REMARK  217  A    between atoms: _568  and  _569
REMARK  218  A    between atoms: _569  and  _570
REMARK  219  A    between atoms: _579  and  _581
REMARK  220  A    between atoms: _581  and  _582
REMARK  221  A    between atoms: _581  and  _584
REMARK  222  A    between atoms: _584  and  _585
REMARK  223  A    between atoms: _590  and  _591
REMARK  224  A    between atoms: _593  and  _595
REMARK  225  A    between atoms: _595  and  _596
REMARK  226  A    between atoms: _595  and  _598
REMARK  227  A    between atoms: _598  and  _599
REMARK                            x       y       z     vdW  Elec       q    Type
REMARK                         _______ _______ _______ _____ _____    ______ ____
ROOT
ATOM      1  C   ARG A   1     -18.567  28.071 -18.000  0.00  0.00    +0.238 C 
ATOM      2  N   TYR A   2     -19.209  28.220 -16.840  0.00  0.00    -0.298 N 
ATOM      3  H   TYR A   2     -18.925  28.982 -16.191  0.00  0.00    +0.150 HD
ATOM      4  O   ARG A   1     -18.876  27.217 -18.827  0.00  0.00    -0.274 OA
ENDROOT
BRANCH   1   5
ATOM      5  CA  ARG A   1     -17.410  29.033 -18.279  0.00  0.00    +0.145 C 
BRANCH   5   6
ATOM      6  N   ARG A   1     -17.680  30.389 -17.798  0.00  0.00    -0.238 NA
ATOM      7  H   ARG A   1     -16.941  30.876 -17.252  0.00  0.00    +0.142 HD
ENDBRANCH   5   6
BRANCH   5   8
ATOM      8  CB  ARG A   1     -16.114  28.493 -17.662  0.00  0.00    +0.030 C 
BRANCH   8   9
ATOM      9  CG  ARG A   1     -16.140  28.380 -16.130  0.00  0.00    +0.045 C 
BRANCH   9  10
ATOM     10  CD  ARG A   1     -14.781  27.998 -15.573  0.00  0.00    +0.174 C 
BRANCH  10  11
ATOM     11  NE  ARG A   1     -13.768  29.023 -15.838  0.00  0.00    -0.265 N 
ATOM     12  CZ  ARG A   1     -12.480  28.902 -15.530  0.00  0.00    +0.342 C 
ATOM     13  NH2 ARG A   1     -12.031  27.797 -14.941  0.00  0.00    -0.292 N 
ATOM     14 HH21 ARG A   1     -11.023  27.708 -14.702  0.00  0.00    +0.255 HD
ATOM     15 HH22 ARG A   1     -12.688  27.022 -14.719  0.00  0.00    +0.255 HD
ATOM     16  NH1 ARG A   1     -11.635  29.883 -15.818  0.00  0.00    -0.292 N 
ATOM     17 HH11 ARG A   1     -10.628  29.789 -15.577  0.00  0.00    +0.255 HD
ATOM     18 HH12 ARG A   1     -11.980  30.746 -16.284  0.00  0.00    +0.255 HD
ATOM     19  HE  ARG A   1     -14.077  29.903 -16.297  0.00  0.00    +0.259 HD
ENDBRANCH  10  11
ENDBRANCH   9  10
ENDBRANCH   8   9
ENDBRANCH   5   8
ENDBRANCH   1   5
BRANCH   2  20
ATOM     20  CA  TYR A   2     -20.306  27.328 -16.467  0.00  0.00    +0.141 C 
BRANCH  20  21
ATOM     21  C   TYR A   2     -21.608  27.630 -17.213  0.00  0.00    +0.227 C 
ATOM     22  O   TYR A   2     -22.341  26.707 -17.574  0.00  0.00    -0.286 OA
ENDBRANCH  20  21
BRANCH  20  23
ATOM     23  CB  TYR A   2     -20.517  27.318 -14.949  0.00  0.00    +0.054 C 
BRANCH  23  24
ATOM     24  CG  TYR A   2     -19.284  26.888 -14.194  0.00  0.00    -0.020 A 
ATOM     25  CD2 TYR A   2     -18.520  27.817 -13.501  0.00  0.00    -0.001 A 
ATOM     26  CE2 TYR A   2     -17.369  27.431 -12.808  0.00  0.00    +0.036 A 
ATOM     27  CZ  TYR A   2     -16.976  26.105 -12.813  0.00  0.00    +0.134 A 
ATOM     28  CE1 TYR A   2     -17.719  25.153 -13.498  0.00  0.00    +0.036 A 
ATOM     29  CD1 TYR A   2     -18.869  25.550 -14.191  0.00  0.00    -0.001 A 
BRANCH  27  30
ATOM     30  OH  TYR A   2     -15.843  25.740 -12.125  0.00  0.00    -0.506 OA
ATOM     31  HH  TYR A   2     -15.697  24.766 -12.225  0.00  0.00    +0.292 HD
ENDBRANCH  27  30
ENDBRANCH  23  24
ENDBRANCH  20  23
ENDBRANCH   2  20
TORSDOF 11
REMARK  Name = ../refined-set-2016/2xhm/2xhm_pocket.pdb
REMARK  227 active torsions:
REMARK  status: ('A' for Active; 'I' for Inactive)
REMARK    1  A    between atoms: _1  and  _3
REMARK    2  A    between atoms: _3  and  _4
REMARK    3  A    between atoms: _3  and  _6
REMARK    4  A    between atoms: _6  and  _7
REMARK    5  A    between atoms: _10  and  _12
REMARK    6  A    between atoms: _12  and  _13
REMARK    7  A    between atoms: _12  and  _15
REMARK    8  A    between atoms: _15  and  _16
REMARK    9  A    between atoms: _16  and  _17
REMARK   10  A    between atoms: _20  and  _22
REMARK   11  A    between atoms: _22  and  _23
REMARK   12  A    between atoms: _22  and  _25
REMARK   13  A    between atoms: _25  and  _26
REMARK   14  A    between atoms: _29  and  _31
REMARK   15  A    between atoms: _31  and  _32
REMARK   16  A    between atoms: _31  and  _34
REMARK   17  A    between atoms: _34  and  _35
REMARK   18  A    between atoms: _35  and  _36
REMARK   19  A    between atoms: _39  and  _41
REMARK   20  A    between atoms: _41  and  _42
REMARK   21  A    between atoms: _45  and  _47
REMARK   22  A    between atoms: _47  and  _48
REMARK   23  A    between atoms: _51  and  _53
REMARK   24  A    between atoms: _53  and  _54
REMARK   25  A    between atoms: _53  and  _56
REMARK   26  A    between atoms: _56  and  _57
REMARK   27  A    between atoms: _67  and  _69
REMARK   28  A    between atoms: _69  and  _70
REMARK   29  A    between atoms: _69  and  _72
REMARK   30  A    between atoms: _72  and  _73
REMARK   31  A    between atoms: _73  and  _74
REMARK   32  A    between atoms: _74  and  _75
REMARK   33  A    between atoms: _75  and  _76
REMARK   34  A    between atoms: _80  and  _82
REMARK   35  A    between atoms: _82  and  _83
REMARK   36  A    between atoms: _82  and  _85
REMARK   37  A    between atoms: _85  and  _86
REMARK   38  A    between atoms: _88  and  _90
REMARK   39  A    between atoms: _90  and  _91
REMARK   40  A    between atoms: _90  and  _93
REMARK   41  A    between atoms: _93  and  _94
REMARK   42  A    between atoms: _94  and  _95
REMARK   43  A    between atoms: _98  and  _100
REMARK   44  A    between atoms: _100  and  _101
REMARK   45  A    between atoms: _100  and  _103
REMARK   46  A    between atoms: _103  and  _104
REMARK   47  A    between atoms: _104  and  _105
REMARK   48  A    between atoms: _110  and  _112
REMARK   49  A    between atoms: _112  and  _113
REMARK   50  A    between atoms: _112  and  _115
REMARK   51  A    between atoms: _118  and  _120
REMARK   52  A    between atoms: _120  and  _121
REMARK   53  A    between atoms: _120  and  _123
REMARK   54  A    between atoms: _123  and  _124
REMARK   55  A    between atoms: _129  and  _131
REMARK   56  A    between atoms: _131  and  _132
REMARK   57  A    between atoms: _135  and  _137
REMARK   58  A    between atoms: _137  and  _138
REMARK   59  A    between atoms: _137  and  _140
REMARK   60  A    between atoms: _140  and  _141
REMARK   61  A    between atoms: _143  and  _145
REMARK   62  A    between atoms: _145  and  _146
REMARK   63  A    between atoms: _149  and  _151
REMARK   64  A    between atoms: _151  and  _152
REMARK   65  A    between atoms: _151  and  _154
REMARK   66  A    between atoms: _154  and  _155
REMARK   67  A    between atoms: _165  and  _167
REMARK   68  A    between atoms: _167  and  _168
REMARK   69  A    between atoms: _167  and  _170
REMARK   70  A    between atoms: _170  and  _171
REMARK   71  A    between atoms: _174  and  _176
REMARK   72  A    between atoms: _176  and  _177
REMARK   73  A    between atoms: _176  and  _179
REMARK   74  A    between atoms: _179  and  _180
REMARK   75  A    between atoms: _186  and  _188
REMARK   76  A    between atoms: _188  and  _189
REMARK   77  A    between atoms: _188  and  _191
REMARK   78  A    between atoms: _191  and  _192
REMARK   79  A    between atoms: _197  and  _198
REMARK   80  A    between atoms: _200  and  _202
REMARK   81  A    between atoms: _202  and  _203
REMARK   82  A    between atoms: _202  and  _205
REMARK   83  A    between atoms: _205  and  _206
REMARK   84  A    between atoms: _209  and  _211
REMARK   85  A    between atoms: _211  and  _212
REMARK   86  A    between atoms: _211  and  _214
REMARK   87  A    between atoms: _217  and  _219
REMARK   88  A    between atoms: _219  and  _220
REMARK   89  A    between atoms: _219  and  _222
REMARK   90  A    between atoms: _222  and  _223
REMARK   91  A    between atoms: _223  and  _224
REMARK   92  A    between atoms: _224  and  _225
REMARK   93  A    between atoms: _234  and  _236
REMARK   94  A    between atoms: _236  and  _237
REMARK   95  A    between atoms: _236  and  _239
REMARK   96  A    between atoms: _239  and  _240
REMARK   97  A    between atoms: _243  and  _245
REMARK   98  A    between atoms: _245  and  _246
REMARK   99  A    between atoms: _245  and  _248
REMARK  100  A    between atoms: _248  and  _249
REMARK  101  A    between atoms: _249  and  _250
REMARK  102  A    between atoms: _250  and  _251
REMARK  103  A    between atoms: _251  and  _252
REMARK  104  A    between atoms: _256  and  _258
REMARK  105  A    between atoms: _258  and  _259
REMARK  106  A    between atoms: _258  and  _261
REMARK  107  A    between atoms: _261  and  _262
REMARK  108  A    between atoms: _262  and  _263
REMARK  109  A    between atoms: _268  and  _270
REMARK  110  A    between atoms: _270  and  _271
REMARK  111  A    between atoms: _270  and  _273
REMARK  112  A    between atoms: _273  and  _274
REMARK  113  A    between atoms: _277  and  _279
REMARK  114  A    between atoms: _290  and  _293
REMARK  115  A    between atoms: _293  and  _294
REMARK  116  A    between atoms: _294  and  _295
REMARK  117  A    between atoms: _300  and  _303
REMARK  118  A    between atoms: _303  and  _304
REMARK  119  A    between atoms: _314  and  _315
REMARK  120  A    between atoms: _323  and  _325
REMARK  121  A    between atoms: _325  and  _326
REMARK  122  A    between atoms: _325  and  _328
REMARK  123  A    between atoms: _328  and  _329
REMARK  124  A    between atoms: _332  and  _334
REMARK  125  A    between atoms: _334  and  _335
REMARK  126  A    between atoms: _334  and  _337
REMARK  127  A    between atoms: _337  and  _338
REMARK  128  A    between atoms: _343  and  _344
REMARK  129  A    between atoms: _346  and  _348
REMARK  130  A    between atoms: _348  and  _349
REMARK  131  A    between atoms: _348  and  _351
REMARK  132  A    between atoms: _351  and  _352
REMARK  133  A    between atoms: _358  and  _360
REMARK  134  A    between atoms: _360  and  _361
REMARK  135  A    between atoms: _360  and  _363
REMARK  136  A    between atoms: _363  and  _364
REMARK  137  A    between atoms: _369  and  _370
REMARK  138  A    between atoms: _372  and  _374
REMARK  139  A    between atoms: _374  and  _375
REMARK  140  A    between atoms: _374  and  _377
REMARK  141  A    between atoms: _377  and  _378
REMARK  142  A    between atoms: _384  and  _386
REMARK  143  A    between atoms: _386  and  _387
REMARK  144  A    between atoms: _386  and  _389
REMARK  145  A    between atoms: _389  and  _390
REMARK  146  A    between atoms: _390  and  _391
REMARK  147  A    between atoms: _391  and  _392
REMARK  148  A    between atoms: _401  and  _403
REMARK  149  A    between atoms: _403  and  _404
REMARK  150  A    between atoms: _403  and  _406
REMARK  151  A    between atoms: _406  and  _407
REMARK  152  A    between atoms: _410  and  _412
REMARK  153  A    between atoms: _412  and  _413
REMARK  154  A    between atoms: _415  and  _417
REMARK  155  A    between atoms: _417  and  _418
REMARK  156  A    between atoms: _421  and  _423
REMARK  157  A    between atoms: _423  and  _424
REMARK  158  A    between atoms: _423  and  _426
REMARK  159  A    between atoms: _426  and  _427
REMARK  160  A    between atoms: _433  and  _434
REMARK  161  A    between atoms: _439  and  _441
REMARK  162  A    between atoms: _441  and  _442
REMARK  163  A    between atoms: _444  and  _446
REMARK  164  A    between atoms: _446  and  _447
REMARK  165  A    between atoms: _446  and  _449
REMARK  166  A    between atoms: _449  and  _450
REMARK  167  A    between atoms: _456  and  _458
REMARK  168  A    between atoms: _458  and  _459
REMARK  169  A    between atoms: _458  and  _461
REMARK  170  A    between atoms: _461  and  _462
REMARK  171  A    between atoms: _467  and  _469
REMARK  172  A    between atoms: _469  and  _470
REMARK  173  A    between atoms: _469  and  _472
REMARK  174  A    between atoms: _472  and  _473
REMARK  175  A    between atoms: _473  and  _474
REMARK  176  A    between atoms: _474  and  _475
REMARK  177  A    between atoms: _475  and  ZN_601
REMARK  178  A    between atoms: _477  and  _479
REMARK  179  A    between atoms: _479  and  _480
REMARK  180  A    between atoms: _479  and  _482
REMARK  181  A    between atoms: _482  and  _483
REMARK  182  A    between atoms: _483  and  _484
REMARK  183  A    between atoms: _484  and  _485
REMARK  184  A    between atoms: _485  and  _486
REMARK  185  A    between atoms: _490  and  _492
REMARK  186  A    between atoms: _492  and  _493
REMARK  187  A    between atoms: _492  and  _495
REMARK  188  A    between atoms: _495  and  _496
REMARK  189  A    between atoms: _501  and  _502
REMARK  190  A    between atoms: _504  and  _506
REMARK  191  A    between atoms: _506  and  _507
REMARK  192  A    between atoms: _506  and  _509
REMARK  193  A    between atoms: _509  and  _510
REMARK  194  A    between atoms: _515  and  _517
REMARK  195  A    between atoms: _517  and  _518
REMARK  196  A    between atoms: _521  and  _523
REMARK  197  A    between atoms: _523  and  _524
REMARK  198  A    between atoms: _523  and  _526
REMARK  199  A    between atoms: _526  and  _527
REMARK  200  A    between atoms: _530  and  _532
REMARK  201  A    between atoms: _532  and  _533
REMARK  202  A    between atoms: _532  and  _535
REMARK  203  A    between atoms: _538  and  _540
REMARK  204  A    between atoms: _540  and  _541
REMARK  205  A    between atoms: _540  and  _543
REMARK  206  A    between atoms: _543  and  _544
REMARK  207  A    between atoms: _544  and  _545
REMARK  208  A    between atoms: _548  and  _550
REMARK  209  A    between atoms: _550  and  _551
REMARK  210  A    between atoms: _550  and  _553
REMARK  211  A    between atoms: _553  and  _554
REMARK  212  A    between atoms: _559  and  _560
REMARK  213  A    between atoms: _562  and  _564
REMARK  214  A    between atoms: _564  and  _565
REMARK  215  A    between atoms: _564  and  _567
REMARK  216  A    between atoms: _567  and  _568
REMARK  217  A    between atoms: _568  and  _569
REMARK  218  A    between atoms: _569  and  _570
REMARK  219  A    between atoms: _579  and  _581
REMARK  220  A    between atoms: _581  and  _582
REMARK  221  A    between atoms: _581  and  _584
REMARK  222  A    between atoms: _584  and  _585
REMARK  223  A    between atoms: _590  and  _591
REMARK  224  A    between atoms: _593  and  _595
REMARK  225  A    between atoms: _595  and  _596
REMARK  226  A    between atoms: _595  and  _598
REMARK  227  A    between atoms: _598  and  _599
REMARK                            x       y       z     vdW  Elec       q    Type
REMARK                         _______ _______ _______ _____ _____    ______ ____
ROOT
ATOM      1  CA  SER A   1     -21.030  24.762 -20.434  0.00  0.00    +0.163 C 
ENDROOT
BRANCH   1   2
ATOM      2  N   SER A   1     -20.912  26.222 -20.591  0.00  0.00    -0.237 NA
ATOM      3  H   SER A   1     -20.346  26.755 -19.900  0.00  0.00    +0.142 HD
ENDBRANCH   1   2
BRANCH   1   4
ATOM      4  CB  SER A   1     -22.473  24.255 -20.456  0.00  0.00    +0.227 C 
ATOM      5  OG  SER A   1     -22.803  23.331 -21.201  0.00  0.00    -0.287 OA
ENDBRANCH   1   4
BRANCH   1   6
ATOM      6  C   SER A   1     -20.357  24.303 -19.141  0.00  0.00    +0.162 C 
BRANCH   6   7
ATOM      7  O   SER A   1     -20.649  22.942 -18.876  0.00  0.00    -0.380 OA
ATOM      8  H   SER A   1     -20.203  22.668 -18.036  0.00  0.00    +0.211 HD
ENDBRANCH   6   7
ENDBRANCH   1   6
TORSDOF 4
REMARK  Name = ../refined-set-2016/2xhm/2xhm_pocket.pdb
REMARK  227 active torsions:
REMARK  status: ('A' for Active; 'I' for Inactive)
REMARK    1  A    between atoms: _1  and  _3
REMARK    2  A    between atoms: _3  and  _4
REMARK    3  A    between atoms: _3  and  _6
REMARK    4  A    between atoms: _6  and  _7
REMARK    5  A    between atoms: _10  and  _12
REMARK    6  A    between atoms: _12  and  _13
REMARK    7  A    between atoms: _12  and  _15
REMARK    8  A    between atoms: _15  and  _16
REMARK    9  A    between atoms: _16  and  _17
REMARK   10  A    between atoms: _20  and  _22
REMARK   11  A    between atoms: _22  and  _23
REMARK   12  A    between atoms: _22  and  _25
REMARK   13  A    between atoms: _25  and  _26
REMARK   14  A    between atoms: _29  and  _31
REMARK   15  A    between atoms: _31  and  _32
REMARK   16  A    between atoms: _31  and  _34
REMARK   17  A    between atoms: _34  and  _35
REMARK   18  A    between atoms: _35  and  _36
REMARK   19  A    between atoms: _39  and  _41
REMARK   20  A    between atoms: _41  and  _42
REMARK   21  A    between atoms: _45  and  _47
REMARK   22  A    between atoms: _47  and  _48
REMARK   23  A    between atoms: _51  and  _53
REMARK   24  A    between atoms: _53  and  _54
REMARK   25  A    between atoms: _53  and  _56
REMARK   26  A    between atoms: _56  and  _57
REMARK   27  A    between atoms: _67  and  _69
REMARK   28  A    between atoms: _69  and  _70
REMARK   29  A    between atoms: _69  and  _72
REMARK   30  A    between atoms: _72  and  _73
REMARK   31  A    between atoms: _73  and  _74
REMARK   32  A    between atoms: _74  and  _75
REMARK   33  A    between atoms: _75  and  _76
REMARK   34  A    between atoms: _80  and  _82
REMARK   35  A    between atoms: _82  and  _83
REMARK   36  A    between atoms: _82  and  _85
REMARK   37  A    between atoms: _85  and  _86
REMARK   38  A    between atoms: _88  and  _90
REMARK   39  A    between atoms: _90  and  _91
REMARK   40  A    between atoms: _90  and  _93
REMARK   41  A    between atoms: _93  and  _94
REMARK   42  A    between atoms: _94  and  _95
REMARK   43  A    between atoms: _98  and  _100
REMARK   44  A    between atoms: _100  and  _101
REMARK   45  A    between atoms: _100  and  _103
REMARK   46  A    between atoms: _103  and  _104
REMARK   47  A    between atoms: _104  and  _105
REMARK   48  A    between atoms: _110  and  _112
REMARK   49  A    between atoms: _112  and  _113
REMARK   50  A    between atoms: _112  and  _115
REMARK   51  A    between atoms: _118  and  _120
REMARK   52  A    between atoms: _120  and  _121
REMARK   53  A    between atoms: _120  and  _123
REMARK   54  A    between atoms: _123  and  _124
REMARK   55  A    between atoms: _129  and  _131
REMARK   56  A    between atoms: _131  and  _132
REMARK   57  A    between atoms: _135  and  _137
REMARK   58  A    between atoms: _137  and  _138
REMARK   59  A    between atoms: _137  and  _140
REMARK   60  A    between atoms: _140  and  _141
REMARK   61  A    between atoms: _143  and  _145
REMARK   62  A    between atoms: _145  and  _146
REMARK   63  A    between atoms: _149  and  _151
REMARK   64  A    between atoms: _151  and  _152
REMARK   65  A    between atoms: _151  and  _154
REMARK   66  A    between atoms: _154  and  _155
REMARK   67  A    between atoms: _165  and  _167
REMARK   68  A    between atoms: _167  and  _168
REMARK   69  A    between atoms: _167  and  _170
REMARK   70  A    between atoms: _170  and  _171
REMARK   71  A    between atoms: _174  and  _176
REMARK   72  A    between atoms: _176  and  _177
REMARK   73  A    between atoms: _176  and  _179
REMARK   74  A    between atoms: _179  and  _180
REMARK   75  A    between atoms: _186  and  _188
REMARK   76  A    between atoms: _188  and  _189
REMARK   77  A    between atoms: _188  and  _191
REMARK   78  A    between atoms: _191  and  _192
REMARK   79  A    between atoms: _197  and  _198
REMARK   80  A    between atoms: _200  and  _202
REMARK   81  A    between atoms: _202  and  _203
REMARK   82  A    between atoms: _202  and  _205
REMARK   83  A    between atoms: _205  and  _206
REMARK   84  A    between atoms: _209  and  _211
REMARK   85  A    between atoms: _211  and  _212
REMARK   86  A    between atoms: _211  and  _214
REMARK   87  A    between atoms: _217  and  _219
REMARK   88  A    between atoms: _219  and  _220
REMARK   89  A    between atoms: _219  and  _222
REMARK   90  A    between atoms: _222  and  _223
REMARK   91  A    between atoms: _223  and  _224
REMARK   92  A    between atoms: _224  and  _225
REMARK   93  A    between atoms: _234  and  _236
REMARK   94  A    between atoms: _236  and  _237
REMARK   95  A    between atoms: _236  and  _239
REMARK   96  A    between atoms: _239  and  _240
REMARK   97  A    between atoms: _243  and  _245
REMARK   98  A    between atoms: _245  and  _246
REMARK   99  A    between atoms: _245  and  _248
REMARK  100  A    between atoms: _248  and  _249
REMARK  101  A    between atoms: _249  and  _250
REMARK  102  A    between atoms: _250  and  _251
REMARK  103  A    between atoms: _251  and  _252
REMARK  104  A    between atoms: _256  and  _258
REMARK  105  A    between atoms: _258  and  _259
REMARK  106  A    between atoms: _258  and  _261
REMARK  107  A    between atoms: _261  and  _262
REMARK  108  A    between atoms: _262  and  _263
REMARK  109  A    between atoms: _268  and  _270
REMARK  110  A    between atoms: _270  and  _271
REMARK  111  A    between atoms: _270  and  _273
REMARK  112  A    between atoms: _273  and  _274
REMARK  113  A    between atoms: _277  and  _279
REMARK  114  A    between atoms: _290  and  _293
REMARK  115  A    between atoms: _293  and  _294
REMARK  116  A    between atoms: _294  and  _295
REMARK  117  A    between atoms: _300  and  _303
REMARK  118  A    between atoms: _303  and  _304
REMARK  119  A    between atoms: _314  and  _315
REMARK  120  A    between atoms: _323  and  _325
REMARK  121  A    between atoms: _325  and  _326
REMARK  122  A    between atoms: _325  and  _328
REMARK  123  A    between atoms: _328  and  _329
REMARK  124  A    between atoms: _332  and  _334
REMARK  125  A    between atoms: _334  and  _335
REMARK  126  A    between atoms: _334  and  _337
REMARK  127  A    between atoms: _337  and  _338
REMARK  128  A    between atoms: _343  and  _344
REMARK  129  A    between atoms: _346  and  _348
REMARK  130  A    between atoms: _348  and  _349
REMARK  131  A    between atoms: _348  and  _351
REMARK  132  A    between atoms: _351  and  _352
REMARK  133  A    between atoms: _358  and  _360
REMARK  134  A    between atoms: _360  and  _361
REMARK  135  A    between atoms: _360  and  _363
REMARK  136  A    between atoms: _363  and  _364
REMARK  137  A    between atoms: _369  and  _370
REMARK  138  A    between atoms: _372  and  _374
REMARK  139  A    between atoms: _374  and  _375
REMARK  140  A    between atoms: _374  and  _377
REMARK  141  A    between atoms: _377  and  _378
REMARK  142  A    between atoms: _384  and  _386
REMARK  143  A    between atoms: _386  and  _387
REMARK  144  A    between atoms: _386  and  _389
REMARK  145  A    between atoms: _389  and  _390
REMARK  146  A    between atoms: _390  and  _391
REMARK  147  A    between atoms: _391  and  _392
REMARK  148  A    between atoms: _401  and  _403
REMARK  149  A    between atoms: _403  and  _404
REMARK  150  A    between atoms: _403  and  _406
REMARK  151  A    between atoms: _406  and  _407
REMARK  152  A    between atoms: _410  and  _412
REMARK  153  A    between atoms: _412  and  _413
REMARK  154  A    between atoms: _415  and  _417
REMARK  155  A    between atoms: _417  and  _418
REMARK  156  A    between atoms: _421  and  _423
REMARK  157  A    between atoms: _423  and  _424
REMARK  158  A    between atoms: _423  and  _426
REMARK  159  A    between atoms: _426  and  _427
REMARK  160  A    between atoms: _433  and  _434
REMARK  161  A    between atoms: _439  and  _441
REMARK  162  A    between atoms: _441  and  _442
REMARK  163  A    between atoms: _444  and  _446
REMARK  164  A    between atoms: _446  and  _447
REMARK  165  A    between atoms: _446  and  _449
REMARK  166  A    between atoms: _449  and  _450
REMARK  167  A    between atoms: _456  and  _458
REMARK  168  A    between atoms: _458  and  _459
REMARK  169  A    between atoms: _458  and  _461
REMARK  170  A    between atoms: _461  and  _462
REMARK  171  A    between atoms: _467  and  _469
REMARK  172  A    between atoms: _469  and  _470
REMARK  173  A    between atoms: _469  and  _472
REMARK  174  A    between atoms: _472  and  _473
REMARK  175  A    between atoms: _473  and  _474
REMARK  176  A    between atoms: _474  and  _475
REMARK  177  A    between atoms: _475  and  ZN_601
REMARK  178  A    between atoms: _477  and  _479
REMARK  179  A    between atoms: _479  and  _480
REMARK  180  A    between atoms: _479  and  _482
REMARK  181  A    between atoms: _482  and  _483
REMARK  182  A    between atoms: _483  and  _484
REMARK  183  A    between atoms: _484  and  _485
REMARK  184  A    between atoms: _485  and  _486
REMARK  185  A    between atoms: _490  and  _492
REMARK  186  A    between atoms: _492  and  _493
REMARK  187  A    between atoms: _492  and  _495
REMARK  188  A    between atoms: _495  and  _496
REMARK  189  A    between atoms: _501  and  _502
REMARK  190  A    between atoms: _504  and  _506
REMARK  191  A    between atoms: _506  and  _507
REMARK  192  A    between atoms: _506  and  _509
REMARK  193  A    between atoms: _509  and  _510
REMARK  194  A    between atoms: _515  and  _517
REMARK  195  A    between atoms: _517  and  _518
REMARK  196  A    between atoms: _521  and  _523
REMARK  197  A    between atoms: _523  and  _524
REMARK  198  A    between atoms: _523  and  _526
REMARK  199  A    between atoms: _526  and  _527
REMARK  200  A    between atoms: _530  and  _532
REMARK  201  A    between atoms: _532  and  _533
REMARK  202  A    between atoms: _532  and  _535
REMARK  203  A    between atoms: _538  and  _540
REMARK  204  A    between atoms: _540  and  _541
REMARK  205  A    between atoms: _540  and  _543
REMARK  206  A    between atoms: _543  and  _544
REMARK  207  A    between atoms: _544  and  _545
REMARK  208  A    between atoms: _548  and  _550
REMARK  209  A    between atoms: _550  and  _551
REMARK  210  A    between atoms: _550  and  _553
REMARK  211  A    between atoms: _553  and  _554
REMARK  212  A    between atoms: _559  and  _560
REMARK  213  A    between atoms: _562  and  _564
REMARK  214  A    between atoms: _564  and  _565
REMARK  215  A    between atoms: _564  and  _567
REMARK  216  A    between atoms: _567  and  _568
REMARK  217  A    between atoms: _568  and  _569
REMARK  218  A    between atoms: _569  and  _570
REMARK  219  A    between atoms: _579  and  _581
REMARK  220  A    between atoms: _581  and  _582
REMARK  221  A    between atoms: _581  and  _584
REMARK  222  A    between atoms: _584  and  _585
REMARK  223  A    between atoms: _590  and  _591
REMARK  224  A    between atoms: _593  and  _595
REMARK  225  A    between atoms: _595  and  _596
REMARK  226  A    between atoms: _595  and  _598
REMARK  227  A    between atoms: _598  and  _599
REMARK                            x       y       z     vdW  Elec       q    Type
REMARK                         _______ _______ _______ _____ _____    ______ ____
ROOT
ATOM      1  O   HOH     1       1.728  28.416 -16.879  0.00  0.00    +0.000 OA
ENDROOT
TORSDOF 0
REMARK  Name = ../refined-set-2016/2xhm/2xhm_pocket.pdb
REMARK  227 active torsions:
REMARK  status: ('A' for Active; 'I' for Inactive)
REMARK    1  A    between atoms: _1  and  _3
REMARK    2  A    between atoms: _3  and  _4
REMARK    3  A    between atoms: _3  and  _6
REMARK    4  A    between atoms: _6  and  _7
REMARK    5  A    between atoms: _10  and  _12
REMARK    6  A    between atoms: _12  and  _13
REMARK    7  A    between atoms: _12  and  _15
REMARK    8  A    between atoms: _15  and  _16
REMARK    9  A    between atoms: _16  and  _17
REMARK   10  A    between atoms: _20  and  _22
REMARK   11  A    between atoms: _22  and  _23
REMARK   12  A    between atoms: _22  and  _25
REMARK   13  A    between atoms: _25  and  _26
REMARK   14  A    between atoms: _29  and  _31
REMARK   15  A    between atoms: _31  and  _32
REMARK   16  A    between atoms: _31  and  _34
REMARK   17  A    between atoms: _34  and  _35
REMARK   18  A    between atoms: _35  and  _36
REMARK   19  A    between atoms: _39  and  _41
REMARK   20  A    between atoms: _41  and  _42
REMARK   21  A    between atoms: _45  and  _47
REMARK   22  A    between atoms: _47  and  _48
REMARK   23  A    between atoms: _51  and  _53
REMARK   24  A    between atoms: _53  and  _54
REMARK   25  A    between atoms: _53  and  _56
REMARK   26  A    between atoms: _56  and  _57
REMARK   27  A    between atoms: _67  and  _69
REMARK   28  A    between atoms: _69  and  _70
REMARK   29  A    between atoms: _69  and  _72
REMARK   30  A    between atoms: _72  and  _73
REMARK   31  A    between atoms: _73  and  _74
REMARK   32  A    between atoms: _74  and  _75
REMARK   33  A    between atoms: _75  and  _76
REMARK   34  A    between atoms: _80  and  _82
REMARK   35  A    between atoms: _82  and  _83
REMARK   36  A    between atoms: _82  and  _85
REMARK   37  A    between atoms: _85  and  _86
REMARK   38  A    between atoms: _88  and  _90
REMARK   39  A    between atoms: _90  and  _91
REMARK   40  A    between atoms: _90  and  _93
REMARK   41  A    between atoms: _93  and  _94
REMARK   42  A    between atoms: _94  and  _95
REMARK   43  A    between atoms: _98  and  _100
REMARK   44  A    between atoms: _100  and  _101
REMARK   45  A    between atoms: _100  and  _103
REMARK   46  A    between atoms: _103  and  _104
REMARK   47  A    between atoms: _104  and  _105
REMARK   48  A    between atoms: _110  and  _112
REMARK   49  A    between atoms: _112  and  _113
REMARK   50  A    between atoms: _112  and  _115
REMARK   51  A    between atoms: _118  and  _120
REMARK   52  A    between atoms: _120  and  _121
REMARK   53  A    between atoms: _120  and  _123
REMARK   54  A    between atoms: _123  and  _124
REMARK   55  A    between atoms: _129  and  _131
REMARK   56  A    between atoms: _131  and  _132
REMARK   57  A    between atoms: _135  and  _137
REMARK   58  A    between atoms: _137  and  _138
REMARK   59  A    between atoms: _137  and  _140
REMARK   60  A    between atoms: _140  and  _141
REMARK   61  A    between atoms: _143  and  _145
REMARK   62  A    between atoms: _145  and  _146
REMARK   63  A    between atoms: _149  and  _151
REMARK   64  A    between atoms: _151  and  _152
REMARK   65  A    between atoms: _151  and  _154
REMARK   66  A    between atoms: _154  and  _155
REMARK   67  A    between atoms: _165  and  _167
REMARK   68  A    between atoms: _167  and  _168
REMARK   69  A    between atoms: _167  and  _170
REMARK   70  A    between atoms: _170  and  _171
REMARK   71  A    between atoms: _174  and  _176
REMARK   72  A    between atoms: _176  and  _177
REMARK   73  A    between atoms: _176  and  _179
REMARK   74  A    between atoms: _179  and  _180
REMARK   75  A    between atoms: _186  and  _188
REMARK   76  A    between atoms: _188  and  _189
REMARK   77  A    between atoms: _188  and  _191
REMARK   78  A    between atoms: _191  and  _192
REMARK   79  A    between atoms: _197  and  _198
REMARK   80  A    between atoms: _200  and  _202
REMARK   81  A    between atoms: _202  and  _203
REMARK   82  A    between atoms: _202  and  _205
REMARK   83  A    between atoms: _205  and  _206
REMARK   84  A    between atoms: _209  and  _211
REMARK   85  A    between atoms: _211  and  _212
REMARK   86  A    between atoms: _211  and  _214
REMARK   87  A    between atoms: _217  and  _219
REMARK   88  A    between atoms: _219  and  _220
REMARK   89  A    between atoms: _219  and  _222
REMARK   90  A    between atoms: _222  and  _223
REMARK   91  A    between atoms: _223  and  _224
REMARK   92  A    between atoms: _224  and  _225
REMARK   93  A    between atoms: _234  and  _236
REMARK   94  A    between atoms: _236  and  _237
REMARK   95  A    between atoms: _236  and  _239
REMARK   96  A    between atoms: _239  and  _240
REMARK   97  A    between atoms: _243  and  _245
REMARK   98  A    between atoms: _245  and  _246
REMARK   99  A    between atoms: _245  and  _248
REMARK  100  A    between atoms: _248  and  _249
REMARK  101  A    between atoms: _249  and  _250
REMARK  102  A    between atoms: _250  and  _251
REMARK  103  A    between atoms: _251  and  _252
REMARK  104  A    between atoms: _256  and  _258
REMARK  105  A    between atoms: _258  and  _259
REMARK  106  A    between atoms: _258  and  _261
REMARK  107  A    between atoms: _261  and  _262
REMARK  108  A    between atoms: _262  and  _263
REMARK  109  A    between atoms: _268  and  _270
REMARK  110  A    between atoms: _270  and  _271
REMARK  111  A    between atoms: _270  and  _273
REMARK  112  A    between atoms: _273  and  _274
REMARK  113  A    between atoms: _277  and  _279
REMARK  114  A    between atoms: _290  and  _293
REMARK  115  A    between atoms: _293  and  _294
REMARK  116  A    between atoms: _294  and  _295
REMARK  117  A    between atoms: _300  and  _303
REMARK  118  A    between atoms: _303  and  _304
REMARK  119  A    between atoms: _314  and  _315
REMARK  120  A    between atoms: _323  and  _325
REMARK  121  A    between atoms: _325  and  _326
REMARK  122  A    between atoms: _325  and  _328
REMARK  123  A    between atoms: _328  and  _329
REMARK  124  A    between atoms: _332  and  _334
REMARK  125  A    between atoms: _334  and  _335
REMARK  126  A    between atoms: _334  and  _337
REMARK  127  A    between atoms: _337  and  _338
REMARK  128  A    between atoms: _343  and  _344
REMARK  129  A    between atoms: _346  and  _348
REMARK  130  A    between atoms: _348  and  _349
REMARK  131  A    between atoms: _348  and  _351
REMARK  132  A    between atoms: _351  and  _352
REMARK  133  A    between atoms: _358  and  _360
REMARK  134  A    between atoms: _360  and  _361
REMARK  135  A    between atoms: _360  and  _363
REMARK  136  A    between atoms: _363  and  _364
REMARK  137  A    between atoms: _369  and  _370
REMARK  138  A    between atoms: _372  and  _374
REMARK  139  A    between atoms: _374  and  _375
REMARK  140  A    between atoms: _374  and  _377
REMARK  141  A    between atoms: _377  and  _378
REMARK  142  A    between atoms: _384  and  _386
REMARK  143  A    between atoms: _386  and  _387
REMARK  144  A    between atoms: _386  and  _389
REMARK  145  A    between atoms: _389  and  _390
REMARK  146  A    between atoms: _390  and  _391
REMARK  147  A    between atoms: _391  and  _392
REMARK  148  A    between atoms: _401  and  _403
REMARK  149  A    between atoms: _403  and  _404
REMARK  150  A    between atoms: _403  and  _406
REMARK  151  A    between atoms: _406  and  _407
REMARK  152  A    between atoms: _410  and  _412
REMARK  153  A    between atoms: _412  and  _413
REMARK  154  A    between atoms: _415  and  _417
REMARK  155  A    between atoms: _417  and  _418
REMARK  156  A    between atoms: _421  and  _423
REMARK  157  A    between atoms: _423  and  _424
REMARK  158  A    between atoms: _423  and  _426
REMARK  159  A    between atoms: _426  and  _427
REMARK  160  A    between atoms: _433  and  _434
REMARK  161  A    between atoms: _439  and  _441
REMARK  162  A    between atoms: _441  and  _442
REMARK  163  A    between atoms: _444  and  _446
REMARK  164  A    between atoms: _446  and  _447
REMARK  165  A    between atoms: _446  and  _449
REMARK  166  A    between atoms: _449  and  _450
REMARK  167  A    between atoms: _456  and  _458
REMARK  168  A    between atoms: _458  and  _459
REMARK  169  A    between atoms: _458  and  _461
REMARK  170  A    between atoms: _461  and  _462
REMARK  171  A    between atoms: _467  and  _469
REMARK  172  A    between atoms: _469  and  _470
REMARK  173  A    between atoms: _469  and  _472
REMARK  174  A    between atoms: _472  and  _473
REMARK  175  A    between atoms: _473  and  _474
REMARK  176  A    between atoms: _474  and  _475
REMARK  177  A    between atoms: _475  and  ZN_601
REMARK  178  A    between atoms: _477  and  _479
REMARK  179  A    between atoms: _479  and  _480
REMARK  180  A    between atoms: _479  and  _482
REMARK  181  A    between atoms: _482  and  _483
REMARK  182  A    between atoms: _483  and  _484
REMARK  183  A    between atoms: _484  and  _485
REMARK  184  A    between atoms: _485  and  _486
REMARK  185  A    between atoms: _490  and  _492
REMARK  186  A    between atoms: _492  and  _493
REMARK  187  A    between atoms: _492  and  _495
REMARK  188  A    between atoms: _495  and  _496
REMARK  189  A    between atoms: _501  and  _502
REMARK  190  A    between atoms: _504  and  _506
REMARK  191  A    between atoms: _506  and  _507
REMARK  192  A    between atoms: _506  and  _509
REMARK  193  A    between atoms: _509  and  _510
REMARK  194  A    between atoms: _515  and  _517
REMARK  195  A    between atoms: _517  and  _518
REMARK  196  A    between atoms: _521  and  _523
REMARK  197  A    between atoms: _523  and  _524
REMARK  198  A    between atoms: _523  and  _526
REMARK  199  A    between atoms: _526  and  _527
REMARK  200  A    between atoms: _530  and  _532
REMARK  201  A    between atoms: _532  and  _533
REMARK  202  A    between atoms: _532  and  _535
REMARK  203  A    between atoms: _538  and  _540
REMARK  204  A    between atoms: _540  and  _541
REMARK  205  A    between atoms: _540  and  _543
REMARK  206  A    between atoms: _543  and  _544
REMARK  207  A    between atoms: _544  and  _545
REMARK  208  A    between atoms: _548  and  _550
REMARK  209  A    between atoms: _550  and  _551
REMARK  210  A    between atoms: _550  and  _553
REMARK  211  A    between atoms: _553  and  _554
REMARK  212  A    between atoms: _559  and  _560
REMARK  213  A    between atoms: _562  and  _564
REMARK  214  A    between atoms: _564  and  _565
REMARK  215  A    between atoms: _564  and  _567
REMARK  216  A    between atoms: _567  and  _568
REMARK  217  A    between atoms: _568  and  _569
REMARK  218  A    between atoms: _569  and  _570
REMARK  219  A    between atoms: _579  and  _581
REMARK  220  A    between atoms: _581  and  _582
REMARK  221  A    between atoms: _581  and  _584
REMARK  222  A    between atoms: _584  and  _585
REMARK  223  A    between atoms: _590  and  _591
REMARK  224  A    between atoms: _593  and  _595
REMARK  225  A    between atoms: _595  and  _596
REMARK  226  A    between atoms: _595  and  _598
REMARK  227  A    between atoms: _598  and  _599
REMARK                            x       y       z     vdW  Elec       q    Type
REMARK                         _______ _______ _______ _____ _____    ______ ____
ROOT
ATOM      1  O   HOH     1      -0.028  26.006 -11.883  0.00  0.00    +0.000 OA
ENDROOT
TORSDOF 0
REMARK  Name = ../refined-set-2016/2xhm/2xhm_pocket.pdb
REMARK  227 active torsions:
REMARK  status: ('A' for Active; 'I' for Inactive)
REMARK    1  A    between atoms: _1  and  _3
REMARK    2  A    between atoms: _3  and  _4
REMARK    3  A    between atoms: _3  and  _6
REMARK    4  A    between atoms: _6  and  _7
REMARK    5  A    between atoms: _10  and  _12
REMARK    6  A    between atoms: _12  and  _13
REMARK    7  A    between atoms: _12  and  _15
REMARK    8  A    between atoms: _15  and  _16
REMARK    9  A    between atoms: _16  and  _17
REMARK   10  A    between atoms: _20  and  _22
REMARK   11  A    between atoms: _22  and  _23
REMARK   12  A    between atoms: _22  and  _25
REMARK   13  A    between atoms: _25  and  _26
REMARK   14  A    between atoms: _29  and  _31
REMARK   15  A    between atoms: _31  and  _32
REMARK   16  A    between atoms: _31  and  _34
REMARK   17  A    between atoms: _34  and  _35
REMARK   18  A    between atoms: _35  and  _36
REMARK   19  A    between atoms: _39  and  _41
REMARK   20  A    between atoms: _41  and  _42
REMARK   21  A    between atoms: _45  and  _47
REMARK   22  A    between atoms: _47  and  _48
REMARK   23  A    between atoms: _51  and  _53
REMARK   24  A    between atoms: _53  and  _54
REMARK   25  A    between atoms: _53  and  _56
REMARK   26  A    between atoms: _56  and  _57
REMARK   27  A    between atoms: _67  and  _69
REMARK   28  A    between atoms: _69  and  _70
REMARK   29  A    between atoms: _69  and  _72
REMARK   30  A    between atoms: _72  and  _73
REMARK   31  A    between atoms: _73  and  _74
REMARK   32  A    between atoms: _74  and  _75
REMARK   33  A    between atoms: _75  and  _76
REMARK   34  A    between atoms: _80  and  _82
REMARK   35  A    between atoms: _82  and  _83
REMARK   36  A    between atoms: _82  and  _85
REMARK   37  A    between atoms: _85  and  _86
REMARK   38  A    between atoms: _88  and  _90
REMARK   39  A    between atoms: _90  and  _91
REMARK   40  A    between atoms: _90  and  _93
REMARK   41  A    between atoms: _93  and  _94
REMARK   42  A    between atoms: _94  and  _95
REMARK   43  A    between atoms: _98  and  _100
REMARK   44  A    between atoms: _100  and  _101
REMARK   45  A    between atoms: _100  and  _103
REMARK   46  A    between atoms: _103  and  _104
REMARK   47  A    between atoms: _104  and  _105
REMARK   48  A    between atoms: _110  and  _112
REMARK   49  A    between atoms: _112  and  _113
REMARK   50  A    between atoms: _112  and  _115
REMARK   51  A    between atoms: _118  and  _120
REMARK   52  A    between atoms: _120  and  _121
REMARK   53  A    between atoms: _120  and  _123
REMARK   54  A    between atoms: _123  and  _124
REMARK   55  A    between atoms: _129  and  _131
REMARK   56  A    between atoms: _131  and  _132
REMARK   57  A    between atoms: _135  and  _137
REMARK   58  A    between atoms: _137  and  _138
REMARK   59  A    between atoms: _137  and  _140
REMARK   60  A    between atoms: _140  and  _141
REMARK   61  A    between atoms: _143  and  _145
REMARK   62  A    between atoms: _145  and  _146
REMARK   63  A    between atoms: _149  and  _151
REMARK   64  A    between atoms: _151  and  _152
REMARK   65  A    between atoms: _151  and  _154
REMARK   66  A    between atoms: _154  and  _155
REMARK   67  A    between atoms: _165  and  _167
REMARK   68  A    between atoms: _167  and  _168
REMARK   69  A    between atoms: _167  and  _170
REMARK   70  A    between atoms: _170  and  _171
REMARK   71  A    between atoms: _174  and  _176
REMARK   72  A    between atoms: _176  and  _177
REMARK   73  A    between atoms: _176  and  _179
REMARK   74  A    between atoms: _179  and  _180
REMARK   75  A    between atoms: _186  and  _188
REMARK   76  A    between atoms: _188  and  _189
REMARK   77  A    between atoms: _188  and  _191
REMARK   78  A    between atoms: _191  and  _192
REMARK   79  A    between atoms: _197  and  _198
REMARK   80  A    between atoms: _200  and  _202
REMARK   81  A    between atoms: _202  and  _203
REMARK   82  A    between atoms: _202  and  _205
REMARK   83  A    between atoms: _205  and  _206
REMARK   84  A    between atoms: _209  and  _211
REMARK   85  A    between atoms: _211  and  _212
REMARK   86  A    between atoms: _211  and  _214
REMARK   87  A    between atoms: _217  and  _219
REMARK   88  A    between atoms: _219  and  _220
REMARK   89  A    between atoms: _219  and  _222
REMARK   90  A    between atoms: _222  and  _223
REMARK   91  A    between atoms: _223  and  _224
REMARK   92  A    between atoms: _224  and  _225
REMARK   93  A    between atoms: _234  and  _236
REMARK   94  A    between atoms: _236  and  _237
REMARK   95  A    between atoms: _236  and  _239
REMARK   96  A    between atoms: _239  and  _240
REMARK   97  A    between atoms: _243  and  _245
REMARK   98  A    between atoms: _245  and  _246
REMARK   99  A    between atoms: _245  and  _248
REMARK  100  A    between atoms: _248  and  _249
REMARK  101  A    between atoms: _249  and  _250
REMARK  102  A    between atoms: _250  and  _251
REMARK  103  A    between atoms: _251  and  _252
REMARK  104  A    between atoms: _256  and  _258
REMARK  105  A    between atoms: _258  and  _259
REMARK  106  A    between atoms: _258  and  _261
REMARK  107  A    between atoms: _261  and  _262
REMARK  108  A    between atoms: _262  and  _263
REMARK  109  A    between atoms: _268  and  _270
REMARK  110  A    between atoms: _270  and  _271
REMARK  111  A    between atoms: _270  and  _273
REMARK  112  A    between atoms: _273  and  _274
REMARK  113  A    between atoms: _277  and  _279
REMARK  114  A    between atoms: _290  and  _293
REMARK  115  A    between atoms: _293  and  _294
REMARK  116  A    between atoms: _294  and  _295
REMARK  117  A    between atoms: _300  and  _303
REMARK  118  A    between atoms: _303  and  _304
REMARK  119  A    between atoms: _314  and  _315
REMARK  120  A    between atoms: _323  and  _325
REMARK  121  A    between atoms: _325  and  _326
REMARK  122  A    between atoms: _325  and  _328
REMARK  123  A    between atoms: _328  and  _329
REMARK  124  A    between atoms: _332  and  _334
REMARK  125  A    between atoms: _334  and  _335
REMARK  126  A    between atoms: _334  and  _337
REMARK  127  A    between atoms: _337  and  _338
REMARK  128  A    between atoms: _343  and  _344
REMARK  129  A    between atoms: _346  and  _348
REMARK  130  A    between atoms: _348  and  _349
REMARK  131  A    between atoms: _348  and  _351
REMARK  132  A    between atoms: _351  and  _352
REMARK  133  A    between atoms: _358  and  _360
REMARK  134  A    between atoms: _360  and  _361
REMARK  135  A    between atoms: _360  and  _363
REMARK  136  A    between atoms: _363  and  _364
REMARK  137  A    between atoms: _369  and  _370
REMARK  138  A    between atoms: _372  and  _374
REMARK  139  A    between atoms: _374  and  _375
REMARK  140  A    between atoms: _374  and  _377
REMARK  141  A    between atoms: _377  and  _378
REMARK  142  A    between atoms: _384  and  _386
REMARK  143  A    between atoms: _386  and  _387
REMARK  144  A    between atoms: _386  and  _389
REMARK  145  A    between atoms: _389  and  _390
REMARK  146  A    between atoms: _390  and  _391
REMARK  147  A    between atoms: _391  and  _392
REMARK  148  A    between atoms: _401  and  _403
REMARK  149  A    between atoms: _403  and  _404
REMARK  150  A    between atoms: _403  and  _406
REMARK  151  A    between atoms: _406  and  _407
REMARK  152  A    between atoms: _410  and  _412
REMARK  153  A    between atoms: _412  and  _413
REMARK  154  A    between atoms: _415  and  _417
REMARK  155  A    between atoms: _417  and  _418
REMARK  156  A    between atoms: _421  and  _423
REMARK  157  A    between atoms: _423  and  _424
REMARK  158  A    between atoms: _423  and  _426
REMARK  159  A    between atoms: _426  and  _427
REMARK  160  A    between atoms: _433  and  _434
REMARK  161  A    between atoms: _439  and  _441
REMARK  162  A    between atoms: _441  and  _442
REMARK  163  A    between atoms: _444  and  _446
REMARK  164  A    between atoms: _446  and  _447
REMARK  165  A    between atoms: _446  and  _449
REMARK  166  A    between atoms: _449  and  _450
REMARK  167  A    between atoms: _456  and  _458
REMARK  168  A    between atoms: _458  and  _459
REMARK  169  A    between atoms: _458  and  _461
REMARK  170  A    between atoms: _461  and  _462
REMARK  171  A    between atoms: _467  and  _469
REMARK  172  A    between atoms: _469  and  _470
REMARK  173  A    between atoms: _469  and  _472
REMARK  174  A    between atoms: _472  and  _473
REMARK  175  A    between atoms: _473  and  _474
REMARK  176  A    between atoms: _474  and  _475
REMARK  177  A    between atoms: _475  and  ZN_601
REMARK  178  A    between atoms: _477  and  _479
REMARK  179  A    between atoms: _479  and  _480
REMARK  180  A    between atoms: _479  and  _482
REMARK  181  A    between atoms: _482  and  _483
REMARK  182  A    between atoms: _483  and  _484
REMARK  183  A    between atoms: _484  and  _485
REMARK  184  A    between atoms: _485  and  _486
REMARK  185  A    between atoms: _490  and  _492
REMARK  186  A    between atoms: _492  and  _493
REMARK  187  A    between atoms: _492  and  _495
REMARK  188  A    between atoms: _495  and  _496
REMARK  189  A    between atoms: _501  and  _502
REMARK  190  A    between atoms: _504  and  _506
REMARK  191  A    between atoms: _506  and  _507
REMARK  192  A    between atoms: _506  and  _509
REMARK  193  A    between atoms: _509  and  _510
REMARK  194  A    between atoms: _515  and  _517
REMARK  195  A    between atoms: _517  and  _518
REMARK  196  A    between atoms: _521  and  _523
REMARK  197  A    between atoms: _523  and  _524
REMARK  198  A    between atoms: _523  and  _526
REMARK  199  A    between atoms: _526  and  _527
REMARK  200  A    between atoms: _530  and  _532
REMARK  201  A    between atoms: _532  and  _533
REMARK  202  A    between atoms: _532  and  _535
REMARK  203  A    between atoms: _538  and  _540
REMARK  204  A    between atoms: _540  and  _541
REMARK  205  A    between atoms: _540  and  _543
REMARK  206  A    between atoms: _543  and  _544
REMARK  207  A    between atoms: _544  and  _545
REMARK  208  A    between atoms: _548  and  _550
REMARK  209  A    between atoms: _550  and  _551
REMARK  210  A    between atoms: _550  and  _553
REMARK  211  A    between atoms: _553  and  _554
REMARK  212  A    between atoms: _559  and  _560
REMARK  213  A    between atoms: _562  and  _564
REMARK  214  A    between atoms: _564  and  _565
REMARK  215  A    between atoms: _564  and  _567
REMARK  216  A    between atoms: _567  and  _568
REMARK  217  A    between atoms: _568  and  _569
REMARK  218  A    between atoms: _569  and  _570
REMARK  219  A    between atoms: _579  and  _581
REMARK  220  A    between atoms: _581  and  _582
REMARK  221  A    between atoms: _581  and  _584
REMARK  222  A    between atoms: _584  and  _585
REMARK  223  A    between atoms: _590  and  _591
REMARK  224  A    between atoms: _593  and  _595
REMARK  225  A    between atoms: _595  and  _596
REMARK  226  A    between atoms: _595  and  _598
REMARK  227  A    between atoms: _598  and  _599
REMARK                            x       y       z     vdW  Elec       q    Type
REMARK                         _______ _______ _______ _____ _____    ______ ____
ROOT
ATOM      1  O   HOH     1       0.713  29.257 -14.499  0.00  0.00    +0.000 OA
ENDROOT
TORSDOF 0
REMARK  Name = ../refined-set-2016/2xhm/2xhm_pocket.pdb
REMARK  227 active torsions:
REMARK  status: ('A' for Active; 'I' for Inactive)
REMARK    1  A    between atoms: _1  and  _3
REMARK    2  A    between atoms: _3  and  _4
REMARK    3  A    between atoms: _3  and  _6
REMARK    4  A    between atoms: _6  and  _7
REMARK    5  A    between atoms: _10  and  _12
REMARK    6  A    between atoms: _12  and  _13
REMARK    7  A    between atoms: _12  and  _15
REMARK    8  A    between atoms: _15  and  _16
REMARK    9  A    between atoms: _16  and  _17
REMARK   10  A    between atoms: _20  and  _22
REMARK   11  A    between atoms: _22  and  _23
REMARK   12  A    between atoms: _22  and  _25
REMARK   13  A    between atoms: _25  and  _26
REMARK   14  A    between atoms: _29  and  _31
REMARK   15  A    between atoms: _31  and  _32
REMARK   16  A    between atoms: _31  and  _34
REMARK   17  A    between atoms: _34  and  _35
REMARK   18  A    between atoms: _35  and  _36
REMARK   19  A    between atoms: _39  and  _41
REMARK   20  A    between atoms: _41  and  _42
REMARK   21  A    between atoms: _45  and  _47
REMARK   22  A    between atoms: _47  and  _48
REMARK   23  A    between atoms: _51  and  _53
REMARK   24  A    between atoms: _53  and  _54
REMARK   25  A    between atoms: _53  and  _56
REMARK   26  A    between atoms: _56  and  _57
REMARK   27  A    between atoms: _67  and  _69
REMARK   28  A    between atoms: _69  and  _70
REMARK   29  A    between atoms: _69  and  _72
REMARK   30  A    between atoms: _72  and  _73
REMARK   31  A    between atoms: _73  and  _74
REMARK   32  A    between atoms: _74  and  _75
REMARK   33  A    between atoms: _75  and  _76
REMARK   34  A    between atoms: _80  and  _82
REMARK   35  A    between atoms: _82  and  _83
REMARK   36  A    between atoms: _82  and  _85
REMARK   37  A    between atoms: _85  and  _86
REMARK   38  A    between atoms: _88  and  _90
REMARK   39  A    between atoms: _90  and  _91
REMARK   40  A    between atoms: _90  and  _93
REMARK   41  A    between atoms: _93  and  _94
REMARK   42  A    between atoms: _94  and  _95
REMARK   43  A    between atoms: _98  and  _100
REMARK   44  A    between atoms: _100  and  _101
REMARK   45  A    between atoms: _100  and  _103
REMARK   46  A    between atoms: _103  and  _104
REMARK   47  A    between atoms: _104  and  _105
REMARK   48  A    between atoms: _110  and  _112
REMARK   49  A    between atoms: _112  and  _113
REMARK   50  A    between atoms: _112  and  _115
REMARK   51  A    between atoms: _118  and  _120
REMARK   52  A    between atoms: _120  and  _121
REMARK   53  A    between atoms: _120  and  _123
REMARK   54  A    between atoms: _123  and  _124
REMARK   55  A    between atoms: _129  and  _131
REMARK   56  A    between atoms: _131  and  _132
REMARK   57  A    between atoms: _135  and  _137
REMARK   58  A    between atoms: _137  and  _138
REMARK   59  A    between atoms: _137  and  _140
REMARK   60  A    between atoms: _140  and  _141
REMARK   61  A    between atoms: _143  and  _145
REMARK   62  A    between atoms: _145  and  _146
REMARK   63  A    between atoms: _149  and  _151
REMARK   64  A    between atoms: _151  and  _152
REMARK   65  A    between atoms: _151  and  _154
REMARK   66  A    between atoms: _154  and  _155
REMARK   67  A    between atoms: _165  and  _167
REMARK   68  A    between atoms: _167  and  _168
REMARK   69  A    between atoms: _167  and  _170
REMARK   70  A    between atoms: _170  and  _171
REMARK   71  A    between atoms: _174  and  _176
REMARK   72  A    between atoms: _176  and  _177
REMARK   73  A    between atoms: _176  and  _179
REMARK   74  A    between atoms: _179  and  _180
REMARK   75  A    between atoms: _186  and  _188
REMARK   76  A    between atoms: _188  and  _189
REMARK   77  A    between atoms: _188  and  _191
REMARK   78  A    between atoms: _191  and  _192
REMARK   79  A    between atoms: _197  and  _198
REMARK   80  A    between atoms: _200  and  _202
REMARK   81  A    between atoms: _202  and  _203
REMARK   82  A    between atoms: _202  and  _205
REMARK   83  A    between atoms: _205  and  _206
REMARK   84  A    between atoms: _209  and  _211
REMARK   85  A    between atoms: _211  and  _212
REMARK   86  A    between atoms: _211  and  _214
REMARK   87  A    between atoms: _217  and  _219
REMARK   88  A    between atoms: _219  and  _220
REMARK   89  A    between atoms: _219  and  _222
REMARK   90  A    between atoms: _222  and  _223
REMARK   91  A    between atoms: _223  and  _224
REMARK   92  A    between atoms: _224  and  _225
REMARK   93  A    between atoms: _234  and  _236
REMARK   94  A    between atoms: _236  and  _237
REMARK   95  A    between atoms: _236  and  _239
REMARK   96  A    between atoms: _239  and  _240
REMARK   97  A    between atoms: _243  and  _245
REMARK   98  A    between atoms: _245  and  _246
REMARK   99  A    between atoms: _245  and  _248
REMARK  100  A    between atoms: _248  and  _249
REMARK  101  A    between atoms: _249  and  _250
REMARK  102  A    between atoms: _250  and  _251
REMARK  103  A    between atoms: _251  and  _252
REMARK  104  A    between atoms: _256  and  _258
REMARK  105  A    between atoms: _258  and  _259
REMARK  106  A    between atoms: _258  and  _261
REMARK  107  A    between atoms: _261  and  _262
REMARK  108  A    between atoms: _262  and  _263
REMARK  109  A    between atoms: _268  and  _270
REMARK  110  A    between atoms: _270  and  _271
REMARK  111  A    between atoms: _270  and  _273
REMARK  112  A    between atoms: _273  and  _274
REMARK  113  A    between atoms: _277  and  _279
REMARK  114  A    between atoms: _290  and  _293
REMARK  115  A    between atoms: _293  and  _294
REMARK  116  A    between atoms: _294  and  _295
REMARK  117  A    between atoms: _300  and  _303
REMARK  118  A    between atoms: _303  and  _304
REMARK  119  A    between atoms: _314  and  _315
REMARK  120  A    between atoms: _323  and  _325
REMARK  121  A    between atoms: _325  and  _326
REMARK  122  A    between atoms: _325  and  _328
REMARK  123  A    between atoms: _328  and  _329
REMARK  124  A    between atoms: _332  and  _334
REMARK  125  A    between atoms: _334  and  _335
REMARK  126  A    between atoms: _334  and  _337
REMARK  127  A    between atoms: _337  and  _338
REMARK  128  A    between atoms: _343  and  _344
REMARK  129  A    between atoms: _346  and  _348
REMARK  130  A    between atoms: _348  and  _349
REMARK  131  A    between atoms: _348  and  _351
REMARK  132  A    between atoms: _351  and  _352
REMARK  133  A    between atoms: _358  and  _360
REMARK  134  A    between atoms: _360  and  _361
REMARK  135  A    between atoms: _360  and  _363
REMARK  136  A    between atoms: _363  and  _364
REMARK  137  A    between atoms: _369  and  _370
REMARK  138  A    between atoms: _372  and  _374
REMARK  139  A    between atoms: _374  and  _375
REMARK  140  A    between atoms: _374  and  _377
REMARK  141  A    between atoms: _377  and  _378
REMARK  142  A    between atoms: _384  and  _386
REMARK  143  A    between atoms: _386  and  _387
REMARK  144  A    between atoms: _386  and  _389
REMARK  145  A    between atoms: _389  and  _390
REMARK  146  A    between atoms: _390  and  _391
REMARK  147  A    between atoms: _391  and  _392
REMARK  148  A    between atoms: _401  and  _403
REMARK  149  A    between atoms: _403  and  _404
REMARK  150  A    between atoms: _403  and  _406
REMARK  151  A    between atoms: _406  and  _407
REMARK  152  A    between atoms: _410  and  _412
REMARK  153  A    between atoms: _412  and  _413
REMARK  154  A    between atoms: _415  and  _417
REMARK  155  A    between atoms: _417  and  _418
REMARK  156  A    between atoms: _421  and  _423
REMARK  157  A    between atoms: _423  and  _424
REMARK  158  A    between atoms: _423  and  _426
REMARK  159  A    between atoms: _426  and  _427
REMARK  160  A    between atoms: _433  and  _434
REMARK  161  A    between atoms: _439  and  _441
REMARK  162  A    between atoms: _441  and  _442
REMARK  163  A    between atoms: _444  and  _446
REMARK  164  A    between atoms: _446  and  _447
REMARK  165  A    between atoms: _446  and  _449
REMARK  166  A    between atoms: _449  and  _450
REMARK  167  A    between atoms: _456  and  _458
REMARK  168  A    between atoms: _458  and  _459
REMARK  169  A    between atoms: _458  and  _461
REMARK  170  A    between atoms: _461  and  _462
REMARK  171  A    between atoms: _467  and  _469
REMARK  172  A    between atoms: _469  and  _470
REMARK  173  A    between atoms: _469  and  _472
REMARK  174  A    between atoms: _472  and  _473
REMARK  175  A    between atoms: _473  and  _474
REMARK  176  A    between atoms: _474  and  _475
REMARK  177  A    between atoms: _475  and  ZN_601
REMARK  178  A    between atoms: _477  and  _479
REMARK  179  A    between atoms: _479  and  _480
REMARK  180  A    between atoms: _479  and  _482
REMARK  181  A    between atoms: _482  and  _483
REMARK  182  A    between atoms: _483  and  _484
REMARK  183  A    between atoms: _484  and  _485
REMARK  184  A    between atoms: _485  and  _486
REMARK  185  A    between atoms: _490  and  _492
REMARK  186  A    between atoms: _492  and  _493
REMARK  187  A    between atoms: _492  and  _495
REMARK  188  A    between atoms: _495  and  _496
REMARK  189  A    between atoms: _501  and  _502
REMARK  190  A    between atoms: _504  and  _506
REMARK  191  A    between atoms: _506  and  _507
REMARK  192  A    between atoms: _506  and  _509
REMARK  193  A    between atoms: _509  and  _510
REMARK  194  A    between atoms: _515  and  _517
REMARK  195  A    between atoms: _517  and  _518
REMARK  196  A    between atoms: _521  and  _523
REMARK  197  A    between atoms: _523  and  _524
REMARK  198  A    between atoms: _523  and  _526
REMARK  199  A    between atoms: _526  and  _527
REMARK  200  A    between atoms: _530  and  _532
REMARK  201  A    between atoms: _532  and  _533
REMARK  202  A    between atoms: _532  and  _535
REMARK  203  A    between atoms: _538  and  _540
REMARK  204  A    between atoms: _540  and  _541
REMARK  205  A    between atoms: _540  and  _543
REMARK  206  A    between atoms: _543  and  _544
REMARK  207  A    between atoms: _544  and  _545
REMARK  208  A    between atoms: _548  and  _550
REMARK  209  A    between atoms: _550  and  _551
REMARK  210  A    between atoms: _550  and  _553
REMARK  211  A    between atoms: _553  and  _554
REMARK  212  A    between atoms: _559  and  _560
REMARK  213  A    between atoms: _562  and  _564
REMARK  214  A    between atoms: _564  and  _565
REMARK  215  A    between atoms: _564  and  _567
REMARK  216  A    between atoms: _567  and  _568
REMARK  217  A    between atoms: _568  and  _569
REMARK  218  A    between atoms: _569  and  _570
REMARK  219  A    between atoms: _579  and  _581
REMARK  220  A    between atoms: _581  and  _582
REMARK  221  A    between atoms: _581  and  _584
REMARK  222  A    between atoms: _584  and  _585
REMARK  223  A    between atoms: _590  and  _591
REMARK  224  A    between atoms: _593  and  _595
REMARK  225  A    between atoms: _595  and  _596
REMARK  226  A    between atoms: _595  and  _598
REMARK  227  A    between atoms: _598  and  _599
REMARK                            x       y       z     vdW  Elec       q    Type
REMARK                         _______ _______ _______ _____ _____    ______ ____
ROOT
ATOM      1  O   HOH     1      -1.416  23.040 -13.854  0.00  0.00    +0.000 OA
ENDROOT
TORSDOF 0
REMARK  Name = ../refined-set-2016/2xhm/2xhm_pocket.pdb
REMARK  227 active torsions:
REMARK  status: ('A' for Active; 'I' for Inactive)
REMARK    1  A    between atoms: _1  and  _3
REMARK    2  A    between atoms: _3  and  _4
REMARK    3  A    between atoms: _3  and  _6
REMARK    4  A    between atoms: _6  and  _7
REMARK    5  A    between atoms: _10  and  _12
REMARK    6  A    between atoms: _12  and  _13
REMARK    7  A    between atoms: _12  and  _15
REMARK    8  A    between atoms: _15  and  _16
REMARK    9  A    between atoms: _16  and  _17
REMARK   10  A    between atoms: _20  and  _22
REMARK   11  A    between atoms: _22  and  _23
REMARK   12  A    between atoms: _22  and  _25
REMARK   13  A    between atoms: _25  and  _26
REMARK   14  A    between atoms: _29  and  _31
REMARK   15  A    between atoms: _31  and  _32
REMARK   16  A    between atoms: _31  and  _34
REMARK   17  A    between atoms: _34  and  _35
REMARK   18  A    between atoms: _35  and  _36
REMARK   19  A    between atoms: _39  and  _41
REMARK   20  A    between atoms: _41  and  _42
REMARK   21  A    between atoms: _45  and  _47
REMARK   22  A    between atoms: _47  and  _48
REMARK   23  A    between atoms: _51  and  _53
REMARK   24  A    between atoms: _53  and  _54
REMARK   25  A    between atoms: _53  and  _56
REMARK   26  A    between atoms: _56  and  _57
REMARK   27  A    between atoms: _67  and  _69
REMARK   28  A    between atoms: _69  and  _70
REMARK   29  A    between atoms: _69  and  _72
REMARK   30  A    between atoms: _72  and  _73
REMARK   31  A    between atoms: _73  and  _74
REMARK   32  A    between atoms: _74  and  _75
REMARK   33  A    between atoms: _75  and  _76
REMARK   34  A    between atoms: _80  and  _82
REMARK   35  A    between atoms: _82  and  _83
REMARK   36  A    between atoms: _82  and  _85
REMARK   37  A    between atoms: _85  and  _86
REMARK   38  A    between atoms: _88  and  _90
REMARK   39  A    between atoms: _90  and  _91
REMARK   40  A    between atoms: _90  and  _93
REMARK   41  A    between atoms: _93  and  _94
REMARK   42  A    between atoms: _94  and  _95
REMARK   43  A    between atoms: _98  and  _100
REMARK   44  A    between atoms: _100  and  _101
REMARK   45  A    between atoms: _100  and  _103
REMARK   46  A    between atoms: _103  and  _104
REMARK   47  A    between atoms: _104  and  _105
REMARK   48  A    between atoms: _110  and  _112
REMARK   49  A    between atoms: _112  and  _113
REMARK   50  A    between atoms: _112  and  _115
REMARK   51  A    between atoms: _118  and  _120
REMARK   52  A    between atoms: _120  and  _121
REMARK   53  A    between atoms: _120  and  _123
REMARK   54  A    between atoms: _123  and  _124
REMARK   55  A    between atoms: _129  and  _131
REMARK   56  A    between atoms: _131  and  _132
REMARK   57  A    between atoms: _135  and  _137
REMARK   58  A    between atoms: _137  and  _138
REMARK   59  A    between atoms: _137  and  _140
REMARK   60  A    between atoms: _140  and  _141
REMARK   61  A    between atoms: _143  and  _145
REMARK   62  A    between atoms: _145  and  _146
REMARK   63  A    between atoms: _149  and  _151
REMARK   64  A    between atoms: _151  and  _152
REMARK   65  A    between atoms: _151  and  _154
REMARK   66  A    between atoms: _154  and  _155
REMARK   67  A    between atoms: _165  and  _167
REMARK   68  A    between atoms: _167  and  _168
REMARK   69  A    between atoms: _167  and  _170
REMARK   70  A    between atoms: _170  and  _171
REMARK   71  A    between atoms: _174  and  _176
REMARK   72  A    between atoms: _176  and  _177
REMARK   73  A    between atoms: _176  and  _179
REMARK   74  A    between atoms: _179  and  _180
REMARK   75  A    between atoms: _186  and  _188
REMARK   76  A    between atoms: _188  and  _189
REMARK   77  A    between atoms: _188  and  _191
REMARK   78  A    between atoms: _191  and  _192
REMARK   79  A    between atoms: _197  and  _198
REMARK   80  A    between atoms: _200  and  _202
REMARK   81  A    between atoms: _202  and  _203
REMARK   82  A    between atoms: _202  and  _205
REMARK   83  A    between atoms: _205  and  _206
REMARK   84  A    between atoms: _209  and  _211
REMARK   85  A    between atoms: _211  and  _212
REMARK   86  A    between atoms: _211  and  _214
REMARK   87  A    between atoms: _217  and  _219
REMARK   88  A    between atoms: _219  and  _220
REMARK   89  A    between atoms: _219  and  _222
REMARK   90  A    between atoms: _222  and  _223
REMARK   91  A    between atoms: _223  and  _224
REMARK   92  A    between atoms: _224  and  _225
REMARK   93  A    between atoms: _234  and  _236
REMARK   94  A    between atoms: _236  and  _237
REMARK   95  A    between atoms: _236  and  _239
REMARK   96  A    between atoms: _239  and  _240
REMARK   97  A    between atoms: _243  and  _245
REMARK   98  A    between atoms: _245  and  _246
REMARK   99  A    between atoms: _245  and  _248
REMARK  100  A    between atoms: _248  and  _249
REMARK  101  A    between atoms: _249  and  _250
REMARK  102  A    between atoms: _250  and  _251
REMARK  103  A    between atoms: _251  and  _252
REMARK  104  A    between atoms: _256  and  _258
REMARK  105  A    between atoms: _258  and  _259
REMARK  106  A    between atoms: _258  and  _261
REMARK  107  A    between atoms: _261  and  _262
REMARK  108  A    between atoms: _262  and  _263
REMARK  109  A    between atoms: _268  and  _270
REMARK  110  A    between atoms: _270  and  _271
REMARK  111  A    between atoms: _270  and  _273
REMARK  112  A    between atoms: _273  and  _274
REMARK  113  A    between atoms: _277  and  _279
REMARK  114  A    between atoms: _290  and  _293
REMARK  115  A    between atoms: _293  and  _294
REMARK  116  A    between atoms: _294  and  _295
REMARK  117  A    between atoms: _300  and  _303
REMARK  118  A    between atoms: _303  and  _304
REMARK  119  A    between atoms: _314  and  _315
REMARK  120  A    between atoms: _323  and  _325
REMARK  121  A    between atoms: _325  and  _326
REMARK  122  A    between atoms: _325  and  _328
REMARK  123  A    between atoms: _328  and  _329
REMARK  124  A    between atoms: _332  and  _334
REMARK  125  A    between atoms: _334  and  _335
REMARK  126  A    between atoms: _334  and  _337
REMARK  127  A    between atoms: _337  and  _338
REMARK  128  A    between atoms: _343  and  _344
REMARK  129  A    between atoms: _346  and  _348
REMARK  130  A    between atoms: _348  and  _349
REMARK  131  A    between atoms: _348  and  _351
REMARK  132  A    between atoms: _351  and  _352
REMARK  133  A    between atoms: _358  and  _360
REMARK  134  A    between atoms: _360  and  _361
REMARK  135  A    between atoms: _360  and  _363
REMARK  136  A    between atoms: _363  and  _364
REMARK  137  A    between atoms: _369  and  _370
REMARK  138  A    between atoms: _372  and  _374
REMARK  139  A    between atoms: _374  and  _375
REMARK  140  A    between atoms: _374  and  _377
REMARK  141  A    between atoms: _377  and  _378
REMARK  142  A    between atoms: _384  and  _386
REMARK  143  A    between atoms: _386  and  _387
REMARK  144  A    between atoms: _386  and  _389
REMARK  145  A    between atoms: _389  and  _390
REMARK  146  A    between atoms: _390  and  _391
REMARK  147  A    between atoms: _391  and  _392
REMARK  148  A    between atoms: _401  and  _403
REMARK  149  A    between atoms: _403  and  _404
REMARK  150  A    between atoms: _403  and  _406
REMARK  151  A    between atoms: _406  and  _407
REMARK  152  A    between atoms: _410  and  _412
REMARK  153  A    between atoms: _412  and  _413
REMARK  154  A    between atoms: _415  and  _417
REMARK  155  A    between atoms: _417  and  _418
REMARK  156  A    between atoms: _421  and  _423
REMARK  157  A    between atoms: _423  and  _424
REMARK  158  A    between atoms: _423  and  _426
REMARK  159  A    between atoms: _426  and  _427
REMARK  160  A    between atoms: _433  and  _434
REMARK  161  A    between atoms: _439  and  _441
REMARK  162  A    between atoms: _441  and  _442
REMARK  163  A    between atoms: _444  and  _446
REMARK  164  A    between atoms: _446  and  _447
REMARK  165  A    between atoms: _446  and  _449
REMARK  166  A    between atoms: _449  and  _450
REMARK  167  A    between atoms: _456  and  _458
REMARK  168  A    between atoms: _458  and  _459
REMARK  169  A    between atoms: _458  and  _461
REMARK  170  A    between atoms: _461  and  _462
REMARK  171  A    between atoms: _467  and  _469
REMARK  172  A    between atoms: _469  and  _470
REMARK  173  A    between atoms: _469  and  _472
REMARK  174  A    between atoms: _472  and  _473
REMARK  175  A    between atoms: _473  and  _474
REMARK  176  A    between atoms: _474  and  _475
REMARK  177  A    between atoms: _475  and  ZN_601
REMARK  178  A    between atoms: _477  and  _479
REMARK  179  A    between atoms: _479  and  _480
REMARK  180  A    between atoms: _479  and  _482
REMARK  181  A    between atoms: _482  and  _483
REMARK  182  A    between atoms: _483  and  _484
REMARK  183  A    between atoms: _484  and  _485
REMARK  184  A    between atoms: _485  and  _486
REMARK  185  A    between atoms: _490  and  _492
REMARK  186  A    between atoms: _492  and  _493
REMARK  187  A    between atoms: _492  and  _495
REMARK  188  A    between atoms: _495  and  _496
REMARK  189  A    between atoms: _501  and  _502
REMARK  190  A    between atoms: _504  and  _506
REMARK  191  A    between atoms: _506  and  _507
REMARK  192  A    between atoms: _506  and  _509
REMARK  193  A    between atoms: _509  and  _510
REMARK  194  A    between atoms: _515  and  _517
REMARK  195  A    between atoms: _517  and  _518
REMARK  196  A    between atoms: _521  and  _523
REMARK  197  A    between atoms: _523  and  _524
REMARK  198  A    between atoms: _523  and  _526
REMARK  199  A    between atoms: _526  and  _527
REMARK  200  A    between atoms: _530  and  _532
REMARK  201  A    between atoms: _532  and  _533
REMARK  202  A    between atoms: _532  and  _535
REMARK  203  A    between atoms: _538  and  _540
REMARK  204  A    between atoms: _540  and  _541
REMARK  205  A    between atoms: _540  and  _543
REMARK  206  A    between atoms: _543  and  _544
REMARK  207  A    between atoms: _544  and  _545
REMARK  208  A    between atoms: _548  and  _550
REMARK  209  A    between atoms: _550  and  _551
REMARK  210  A    between atoms: _550  and  _553
REMARK  211  A    between atoms: _553  and  _554
REMARK  212  A    between atoms: _559  and  _560
REMARK  213  A    between atoms: _562  and  _564
REMARK  214  A    between atoms: _564  and  _565
REMARK  215  A    between atoms: _564  and  _567
REMARK  216  A    between atoms: _567  and  _568
REMARK  217  A    between atoms: _568  and  _569
REMARK  218  A    between atoms: _569  and  _570
REMARK  219  A    between atoms: _579  and  _581
REMARK  220  A    between atoms: _581  and  _582
REMARK  221  A    between atoms: _581  and  _584
REMARK  222  A    between atoms: _584  and  _585
REMARK  223  A    between atoms: _590  and  _591
REMARK  224  A    between atoms: _593  and  _595
REMARK  225  A    between atoms: _595  and  _596
REMARK  226  A    between atoms: _595  and  _598
REMARK  227  A    between atoms: _598  and  _599
REMARK                            x       y       z     vdW  Elec       q    Type
REMARK                         _______ _______ _______ _____ _____    ______ ____
ROOT
ATOM      1  O   HOH     1      -3.558  25.782  -4.083  0.00  0.00    +0.000 OA
ENDROOT
TORSDOF 0
REMARK  Name = ../refined-set-2016/2xhm/2xhm_pocket.pdb
REMARK  227 active torsions:
REMARK  status: ('A' for Active; 'I' for Inactive)
REMARK    1  A    between atoms: _1  and  _3
REMARK    2  A    between atoms: _3  and  _4
REMARK    3  A    between atoms: _3  and  _6
REMARK    4  A    between atoms: _6  and  _7
REMARK    5  A    between atoms: _10  and  _12
REMARK    6  A    between atoms: _12  and  _13
REMARK    7  A    between atoms: _12  and  _15
REMARK    8  A    between atoms: _15  and  _16
REMARK    9  A    between atoms: _16  and  _17
REMARK   10  A    between atoms: _20  and  _22
REMARK   11  A    between atoms: _22  and  _23
REMARK   12  A    between atoms: _22  and  _25
REMARK   13  A    between atoms: _25  and  _26
REMARK   14  A    between atoms: _29  and  _31
REMARK   15  A    between atoms: _31  and  _32
REMARK   16  A    between atoms: _31  and  _34
REMARK   17  A    between atoms: _34  and  _35
REMARK   18  A    between atoms: _35  and  _36
REMARK   19  A    between atoms: _39  and  _41
REMARK   20  A    between atoms: _41  and  _42
REMARK   21  A    between atoms: _45  and  _47
REMARK   22  A    between atoms: _47  and  _48
REMARK   23  A    between atoms: _51  and  _53
REMARK   24  A    between atoms: _53  and  _54
REMARK   25  A    between atoms: _53  and  _56
REMARK   26  A    between atoms: _56  and  _57
REMARK   27  A    between atoms: _67  and  _69
REMARK   28  A    between atoms: _69  and  _70
REMARK   29  A    between atoms: _69  and  _72
REMARK   30  A    between atoms: _72  and  _73
REMARK   31  A    between atoms: _73  and  _74
REMARK   32  A    between atoms: _74  and  _75
REMARK   33  A    between atoms: _75  and  _76
REMARK   34  A    between atoms: _80  and  _82
REMARK   35  A    between atoms: _82  and  _83
REMARK   36  A    between atoms: _82  and  _85
REMARK   37  A    between atoms: _85  and  _86
REMARK   38  A    between atoms: _88  and  _90
REMARK   39  A    between atoms: _90  and  _91
REMARK   40  A    between atoms: _90  and  _93
REMARK   41  A    between atoms: _93  and  _94
REMARK   42  A    between atoms: _94  and  _95
REMARK   43  A    between atoms: _98  and  _100
REMARK   44  A    between atoms: _100  and  _101
REMARK   45  A    between atoms: _100  and  _103
REMARK   46  A    between atoms: _103  and  _104
REMARK   47  A    between atoms: _104  and  _105
REMARK   48  A    between atoms: _110  and  _112
REMARK   49  A    between atoms: _112  and  _113
REMARK   50  A    between atoms: _112  and  _115
REMARK   51  A    between atoms: _118  and  _120
REMARK   52  A    between atoms: _120  and  _121
REMARK   53  A    between atoms: _120  and  _123
REMARK   54  A    between atoms: _123  and  _124
REMARK   55  A    between atoms: _129  and  _131
REMARK   56  A    between atoms: _131  and  _132
REMARK   57  A    between atoms: _135  and  _137
REMARK   58  A    between atoms: _137  and  _138
REMARK   59  A    between atoms: _137  and  _140
REMARK   60  A    between atoms: _140  and  _141
REMARK   61  A    between atoms: _143  and  _145
REMARK   62  A    between atoms: _145  and  _146
REMARK   63  A    between atoms: _149  and  _151
REMARK   64  A    between atoms: _151  and  _152
REMARK   65  A    between atoms: _151  and  _154
REMARK   66  A    between atoms: _154  and  _155
REMARK   67  A    between atoms: _165  and  _167
REMARK   68  A    between atoms: _167  and  _168
REMARK   69  A    between atoms: _167  and  _170
REMARK   70  A    between atoms: _170  and  _171
REMARK   71  A    between atoms: _174  and  _176
REMARK   72  A    between atoms: _176  and  _177
REMARK   73  A    between atoms: _176  and  _179
REMARK   74  A    between atoms: _179  and  _180
REMARK   75  A    between atoms: _186  and  _188
REMARK   76  A    between atoms: _188  and  _189
REMARK   77  A    between atoms: _188  and  _191
REMARK   78  A    between atoms: _191  and  _192
REMARK   79  A    between atoms: _197  and  _198
REMARK   80  A    between atoms: _200  and  _202
REMARK   81  A    between atoms: _202  and  _203
REMARK   82  A    between atoms: _202  and  _205
REMARK   83  A    between atoms: _205  and  _206
REMARK   84  A    between atoms: _209  and  _211
REMARK   85  A    between atoms: _211  and  _212
REMARK   86  A    between atoms: _211  and  _214
REMARK   87  A    between atoms: _217  and  _219
REMARK   88  A    between atoms: _219  and  _220
REMARK   89  A    between atoms: _219  and  _222
REMARK   90  A    between atoms: _222  and  _223
REMARK   91  A    between atoms: _223  and  _224
REMARK   92  A    between atoms: _224  and  _225
REMARK   93  A    between atoms: _234  and  _236
REMARK   94  A    between atoms: _236  and  _237
REMARK   95  A    between atoms: _236  and  _239
REMARK   96  A    between atoms: _239  and  _240
REMARK   97  A    between atoms: _243  and  _245
REMARK   98  A    between atoms: _245  and  _246
REMARK   99  A    between atoms: _245  and  _248
REMARK  100  A    between atoms: _248  and  _249
REMARK  101  A    between atoms: _249  and  _250
REMARK  102  A    between atoms: _250  and  _251
REMARK  103  A    between atoms: _251  and  _252
REMARK  104  A    between atoms: _256  and  _258
REMARK  105  A    between atoms: _258  and  _259
REMARK  106  A    between atoms: _258  and  _261
REMARK  107  A    between atoms: _261  and  _262
REMARK  108  A    between atoms: _262  and  _263
REMARK  109  A    between atoms: _268  and  _270
REMARK  110  A    between atoms: _270  and  _271
REMARK  111  A    between atoms: _270  and  _273
REMARK  112  A    between atoms: _273  and  _274
REMARK  113  A    between atoms: _277  and  _279
REMARK  114  A    between atoms: _290  and  _293
REMARK  115  A    between atoms: _293  and  _294
REMARK  116  A    between atoms: _294  and  _295
REMARK  117  A    between atoms: _300  and  _303
REMARK  118  A    between atoms: _303  and  _304
REMARK  119  A    between atoms: _314  and  _315
REMARK  120  A    between atoms: _323  and  _325
REMARK  121  A    between atoms: _325  and  _326
REMARK  122  A    between atoms: _325  and  _328
REMARK  123  A    between atoms: _328  and  _329
REMARK  124  A    between atoms: _332  and  _334
REMARK  125  A    between atoms: _334  and  _335
REMARK  126  A    between atoms: _334  and  _337
REMARK  127  A    between atoms: _337  and  _338
REMARK  128  A    between atoms: _343  and  _344
REMARK  129  A    between atoms: _346  and  _348
REMARK  130  A    between atoms: _348  and  _349
REMARK  131  A    between atoms: _348  and  _351
REMARK  132  A    between atoms: _351  and  _352
REMARK  133  A    between atoms: _358  and  _360
REMARK  134  A    between atoms: _360  and  _361
REMARK  135  A    between atoms: _360  and  _363
REMARK  136  A    between atoms: _363  and  _364
REMARK  137  A    between atoms: _369  and  _370
REMARK  138  A    between atoms: _372  and  _374
REMARK  139  A    between atoms: _374  and  _375
REMARK  140  A    between atoms: _374  and  _377
REMARK  141  A    between atoms: _377  and  _378
REMARK  142  A    between atoms: _384  and  _386
REMARK  143  A    between atoms: _386  and  _387
REMARK  144  A    between atoms: _386  and  _389
REMARK  145  A    between atoms: _389  and  _390
REMARK  146  A    between atoms: _390  and  _391
REMARK  147  A    between atoms: _391  and  _392
REMARK  148  A    between atoms: _401  and  _403
REMARK  149  A    between atoms: _403  and  _404
REMARK  150  A    between atoms: _403  and  _406
REMARK  151  A    between atoms: _406  and  _407
REMARK  152  A    between atoms: _410  and  _412
REMARK  153  A    between atoms: _412  and  _413
REMARK  154  A    between atoms: _415  and  _417
REMARK  155  A    between atoms: _417  and  _418
REMARK  156  A    between atoms: _421  and  _423
REMARK  157  A    between atoms: _423  and  _424
REMARK  158  A    between atoms: _423  and  _426
REMARK  159  A    between atoms: _426  and  _427
REMARK  160  A    between atoms: _433  and  _434
REMARK  161  A    between atoms: _439  and  _441
REMARK  162  A    between atoms: _441  and  _442
REMARK  163  A    between atoms: _444  and  _446
REMARK  164  A    between atoms: _446  and  _447
REMARK  165  A    between atoms: _446  and  _449
REMARK  166  A    between atoms: _449  and  _450
REMARK  167  A    between atoms: _456  and  _458
REMARK  168  A    between atoms: _458  and  _459
REMARK  169  A    between atoms: _458  and  _461
REMARK  170  A    between atoms: _461  and  _462
REMARK  171  A    between atoms: _467  and  _469
REMARK  172  A    between atoms: _469  and  _470
REMARK  173  A    between atoms: _469  and  _472
REMARK  174  A    between atoms: _472  and  _473
REMARK  175  A    between atoms: _473  and  _474
REMARK  176  A    between atoms: _474  and  _475
REMARK  177  A    between atoms: _475  and  ZN_601
REMARK  178  A    between atoms: _477  and  _479
REMARK  179  A    between atoms: _479  and  _480
REMARK  180  A    between atoms: _479  and  _482
REMARK  181  A    between atoms: _482  and  _483
REMARK  182  A    between atoms: _483  and  _484
REMARK  183  A    between atoms: _484  and  _485
REMARK  184  A    between atoms: _485  and  _486
REMARK  185  A    between atoms: _490  and  _492
REMARK  186  A    between atoms: _492  and  _493
REMARK  187  A    between atoms: _492  and  _495
REMARK  188  A    between atoms: _495  and  _496
REMARK  189  A    between atoms: _501  and  _502
REMARK  190  A    between atoms: _504  and  _506
REMARK  191  A    between atoms: _506  and  _507
REMARK  192  A    between atoms: _506  and  _509
REMARK  193  A    between atoms: _509  and  _510
REMARK  194  A    between atoms: _515  and  _517
REMARK  195  A    between atoms: _517  and  _518
REMARK  196  A    between atoms: _521  and  _523
REMARK  197  A    between atoms: _523  and  _524
REMARK  198  A    between atoms: _523  and  _526
REMARK  199  A    between atoms: _526  and  _527
REMARK  200  A    between atoms: _530  and  _532
REMARK  201  A    between atoms: _532  and  _533
REMARK  202  A    between atoms: _532  and  _535
REMARK  203  A    between atoms: _538  and  _540
REMARK  204  A    between atoms: _540  and  _541
REMARK  205  A    between atoms: _540  and  _543
REMARK  206  A    between atoms: _543  and  _544
REMARK  207  A    between atoms: _544  and  _545
REMARK  208  A    between atoms: _548  and  _550
REMARK  209  A    between atoms: _550  and  _551
REMARK  210  A    between atoms: _550  and  _553
REMARK  211  A    between atoms: _553  and  _554
REMARK  212  A    between atoms: _559  and  _560
REMARK  213  A    between atoms: _562  and  _564
REMARK  214  A    between atoms: _564  and  _565
REMARK  215  A    between atoms: _564  and  _567
REMARK  216  A    between atoms: _567  and  _568
REMARK  217  A    between atoms: _568  and  _569
REMARK  218  A    between atoms: _569  and  _570
REMARK  219  A    between atoms: _579  and  _581
REMARK  220  A    between atoms: _581  and  _582
REMARK  221  A    between atoms: _581  and  _584
REMARK  222  A    between atoms: _584  and  _585
REMARK  223  A    between atoms: _590  and  _591
REMARK  224  A    between atoms: _593  and  _595
REMARK  225  A    between atoms: _595  and  _596
REMARK  226  A    between atoms: _595  and  _598
REMARK  227  A    between atoms: _598  and  _599
REMARK                            x       y       z     vdW  Elec       q    Type
REMARK                         _______ _______ _______ _____ _____    ______ ____
ROOT
ATOM      1  O   HOH     1      -4.539  29.489 -22.017  0.00  0.00    +0.000 OA
ENDROOT
TORSDOF 0
REMARK  Name = ../refined-set-2016/2xhm/2xhm_pocket.pdb
REMARK  227 active torsions:
REMARK  status: ('A' for Active; 'I' for Inactive)
REMARK    1  A    between atoms: _1  and  _3
REMARK    2  A    between atoms: _3  and  _4
REMARK    3  A    between atoms: _3  and  _6
REMARK    4  A    between atoms: _6  and  _7
REMARK    5  A    between atoms: _10  and  _12
REMARK    6  A    between atoms: _12  and  _13
REMARK    7  A    between atoms: _12  and  _15
REMARK    8  A    between atoms: _15  and  _16
REMARK    9  A    between atoms: _16  and  _17
REMARK   10  A    between atoms: _20  and  _22
REMARK   11  A    between atoms: _22  and  _23
REMARK   12  A    between atoms: _22  and  _25
REMARK   13  A    between atoms: _25  and  _26
REMARK   14  A    between atoms: _29  and  _31
REMARK   15  A    between atoms: _31  and  _32
REMARK   16  A    between atoms: _31  and  _34
REMARK   17  A    between atoms: _34  and  _35
REMARK   18  A    between atoms: _35  and  _36
REMARK   19  A    between atoms: _39  and  _41
REMARK   20  A    between atoms: _41  and  _42
REMARK   21  A    between atoms: _45  and  _47
REMARK   22  A    between atoms: _47  and  _48
REMARK   23  A    between atoms: _51  and  _53
REMARK   24  A    between atoms: _53  and  _54
REMARK   25  A    between atoms: _53  and  _56
REMARK   26  A    between atoms: _56  and  _57
REMARK   27  A    between atoms: _67  and  _69
REMARK   28  A    between atoms: _69  and  _70
REMARK   29  A    between atoms: _69  and  _72
REMARK   30  A    between atoms: _72  and  _73
REMARK   31  A    between atoms: _73  and  _74
REMARK   32  A    between atoms: _74  and  _75
REMARK   33  A    between atoms: _75  and  _76
REMARK   34  A    between atoms: _80  and  _82
REMARK   35  A    between atoms: _82  and  _83
REMARK   36  A    between atoms: _82  and  _85
REMARK   37  A    between atoms: _85  and  _86
REMARK   38  A    between atoms: _88  and  _90
REMARK   39  A    between atoms: _90  and  _91
REMARK   40  A    between atoms: _90  and  _93
REMARK   41  A    between atoms: _93  and  _94
REMARK   42  A    between atoms: _94  and  _95
REMARK   43  A    between atoms: _98  and  _100
REMARK   44  A    between atoms: _100  and  _101
REMARK   45  A    between atoms: _100  and  _103
REMARK   46  A    between atoms: _103  and  _104
REMARK   47  A    between atoms: _104  and  _105
REMARK   48  A    between atoms: _110  and  _112
REMARK   49  A    between atoms: _112  and  _113
REMARK   50  A    between atoms: _112  and  _115
REMARK   51  A    between atoms: _118  and  _120
REMARK   52  A    between atoms: _120  and  _121
REMARK   53  A    between atoms: _120  and  _123
REMARK   54  A    between atoms: _123  and  _124
REMARK   55  A    between atoms: _129  and  _131
REMARK   56  A    between atoms: _131  and  _132
REMARK   57  A    between atoms: _135  and  _137
REMARK   58  A    between atoms: _137  and  _138
REMARK   59  A    between atoms: _137  and  _140
REMARK   60  A    between atoms: _140  and  _141
REMARK   61  A    between atoms: _143  and  _145
REMARK   62  A    between atoms: _145  and  _146
REMARK   63  A    between atoms: _149  and  _151
REMARK   64  A    between atoms: _151  and  _152
REMARK   65  A    between atoms: _151  and  _154
REMARK   66  A    between atoms: _154  and  _155
REMARK   67  A    between atoms: _165  and  _167
REMARK   68  A    between atoms: _167  and  _168
REMARK   69  A    between atoms: _167  and  _170
REMARK   70  A    between atoms: _170  and  _171
REMARK   71  A    between atoms: _174  and  _176
REMARK   72  A    between atoms: _176  and  _177
REMARK   73  A    between atoms: _176  and  _179
REMARK   74  A    between atoms: _179  and  _180
REMARK   75  A    between atoms: _186  and  _188
REMARK   76  A    between atoms: _188  and  _189
REMARK   77  A    between atoms: _188  and  _191
REMARK   78  A    between atoms: _191  and  _192
REMARK   79  A    between atoms: _197  and  _198
REMARK   80  A    between atoms: _200  and  _202
REMARK   81  A    between atoms: _202  and  _203
REMARK   82  A    between atoms: _202  and  _205
REMARK   83  A    between atoms: _205  and  _206
REMARK   84  A    between atoms: _209  and  _211
REMARK   85  A    between atoms: _211  and  _212
REMARK   86  A    between atoms: _211  and  _214
REMARK   87  A    between atoms: _217  and  _219
REMARK   88  A    between atoms: _219  and  _220
REMARK   89  A    between atoms: _219  and  _222
REMARK   90  A    between atoms: _222  and  _223
REMARK   91  A    between atoms: _223  and  _224
REMARK   92  A    between atoms: _224  and  _225
REMARK   93  A    between atoms: _234  and  _236
REMARK   94  A    between atoms: _236  and  _237
REMARK   95  A    between atoms: _236  and  _239
REMARK   96  A    between atoms: _239  and  _240
REMARK   97  A    between atoms: _243  and  _245
REMARK   98  A    between atoms: _245  and  _246
REMARK   99  A    between atoms: _245  and  _248
REMARK  100  A    between atoms: _248  and  _249
REMARK  101  A    between atoms: _249  and  _250
REMARK  102  A    between atoms: _250  and  _251
REMARK  103  A    between atoms: _251  and  _252
REMARK  104  A    between atoms: _256  and  _258
REMARK  105  A    between atoms: _258  and  _259
REMARK  106  A    between atoms: _258  and  _261
REMARK  107  A    between atoms: _261  and  _262
REMARK  108  A    between atoms: _262  and  _263
REMARK  109  A    between atoms: _268  and  _270
REMARK  110  A    between atoms: _270  and  _271
REMARK  111  A    between atoms: _270  and  _273
REMARK  112  A    between atoms: _273  and  _274
REMARK  113  A    between atoms: _277  and  _279
REMARK  114  A    between atoms: _290  and  _293
REMARK  115  A    between atoms: _293  and  _294
REMARK  116  A    between atoms: _294  and  _295
REMARK  117  A    between atoms: _300  and  _303
REMARK  118  A    between atoms: _303  and  _304
REMARK  119  A    between atoms: _314  and  _315
REMARK  120  A    between atoms: _323  and  _325
REMARK  121  A    between atoms: _325  and  _326
REMARK  122  A    between atoms: _325  and  _328
REMARK  123  A    between atoms: _328  and  _329
REMARK  124  A    between atoms: _332  and  _334
REMARK  125  A    between atoms: _334  and  _335
REMARK  126  A    between atoms: _334  and  _337
REMARK  127  A    between atoms: _337  and  _338
REMARK  128  A    between atoms: _343  and  _344
REMARK  129  A    between atoms: _346  and  _348
REMARK  130  A    between atoms: _348  and  _349
REMARK  131  A    between atoms: _348  and  _351
REMARK  132  A    between atoms: _351  and  _352
REMARK  133  A    between atoms: _358  and  _360
REMARK  134  A    between atoms: _360  and  _361
REMARK  135  A    between atoms: _360  and  _363
REMARK  136  A    between atoms: _363  and  _364
REMARK  137  A    between atoms: _369  and  _370
REMARK  138  A    between atoms: _372  and  _374
REMARK  139  A    between atoms: _374  and  _375
REMARK  140  A    between atoms: _374  and  _377
REMARK  141  A    between atoms: _377  and  _378
REMARK  142  A    between atoms: _384  and  _386
REMARK  143  A    between atoms: _386  and  _387
REMARK  144  A    between atoms: _386  and  _389
REMARK  145  A    between atoms: _389  and  _390
REMARK  146  A    between atoms: _390  and  _391
REMARK  147  A    between atoms: _391  and  _392
REMARK  148  A    between atoms: _401  and  _403
REMARK  149  A    between atoms: _403  and  _404
REMARK  150  A    between atoms: _403  and  _406
REMARK  151  A    between atoms: _406  and  _407
REMARK  152  A    between atoms: _410  and  _412
REMARK  153  A    between atoms: _412  and  _413
REMARK  154  A    between atoms: _415  and  _417
REMARK  155  A    between atoms: _417  and  _418
REMARK  156  A    between atoms: _421  and  _423
REMARK  157  A    between atoms: _423  and  _424
REMARK  158  A    between atoms: _423  and  _426
REMARK  159  A    between atoms: _426  and  _427
REMARK  160  A    between atoms: _433  and  _434
REMARK  161  A    between atoms: _439  and  _441
REMARK  162  A    between atoms: _441  and  _442
REMARK  163  A    between atoms: _444  and  _446
REMARK  164  A    between atoms: _446  and  _447
REMARK  165  A    between atoms: _446  and  _449
REMARK  166  A    between atoms: _449  and  _450
REMARK  167  A    between atoms: _456  and  _458
REMARK  168  A    between atoms: _458  and  _459
REMARK  169  A    between atoms: _458  and  _461
REMARK  170  A    between atoms: _461  and  _462
REMARK  171  A    between atoms: _467  and  _469
REMARK  172  A    between atoms: _469  and  _470
REMARK  173  A    between atoms: _469  and  _472
REMARK  174  A    between atoms: _472  and  _473
REMARK  175  A    between atoms: _473  and  _474
REMARK  176  A    between atoms: _474  and  _475
REMARK  177  A    between atoms: _475  and  ZN_601
REMARK  178  A    between atoms: _477  and  _479
REMARK  179  A    between atoms: _479  and  _480
REMARK  180  A    between atoms: _479  and  _482
REMARK  181  A    between atoms: _482  and  _483
REMARK  182  A    between atoms: _483  and  _484
REMARK  183  A    between atoms: _484  and  _485
REMARK  184  A    between atoms: _485  and  _486
REMARK  185  A    between atoms: _490  and  _492
REMARK  186  A    between atoms: _492  and  _493
REMARK  187  A    between atoms: _492  and  _495
REMARK  188  A    between atoms: _495  and  _496
REMARK  189  A    between atoms: _501  and  _502
REMARK  190  A    between atoms: _504  and  _506
REMARK  191  A    between atoms: _506  and  _507
REMARK  192  A    between atoms: _506  and  _509
REMARK  193  A    between atoms: _509  and  _510
REMARK  194  A    between atoms: _515  and  _517
REMARK  195  A    between atoms: _517  and  _518
REMARK  196  A    between atoms: _521  and  _523
REMARK  197  A    between atoms: _523  and  _524
REMARK  198  A    between atoms: _523  and  _526
REMARK  199  A    between atoms: _526  and  _527
REMARK  200  A    between atoms: _530  and  _532
REMARK  201  A    between atoms: _532  and  _533
REMARK  202  A    between atoms: _532  and  _535
REMARK  203  A    between atoms: _538  and  _540
REMARK  204  A    between atoms: _540  and  _541
REMARK  205  A    between atoms: _540  and  _543
REMARK  206  A    between atoms: _543  and  _544
REMARK  207  A    between atoms: _544  and  _545
REMARK  208  A    between atoms: _548  and  _550
REMARK  209  A    between atoms: _550  and  _551
REMARK  210  A    between atoms: _550  and  _553
REMARK  211  A    between atoms: _553  and  _554
REMARK  212  A    between atoms: _559  and  _560
REMARK  213  A    between atoms: _562  and  _564
REMARK  214  A    between atoms: _564  and  _565
REMARK  215  A    between atoms: _564  and  _567
REMARK  216  A    between atoms: _567  and  _568
REMARK  217  A    between atoms: _568  and  _569
REMARK  218  A    between atoms: _569  and  _570
REMARK  219  A    between atoms: _579  and  _581
REMARK  220  A    between atoms: _581  and  _582
REMARK  221  A    between atoms: _581  and  _584
REMARK  222  A    between atoms: _584  and  _585
REMARK  223  A    between atoms: _590  and  _591
REMARK  224  A    between atoms: _593  and  _595
REMARK  225  A    between atoms: _595  and  _596
REMARK  226  A    between atoms: _595  and  _598
REMARK  227  A    between atoms: _598  and  _599
REMARK                            x       y       z     vdW  Elec       q    Type
REMARK                         _______ _______ _______ _____ _____    ______ ____
ROOT
ATOM      1  O   HOH     1     -20.026  23.297  -3.322  0.00  0.00    +0.000 OA
ENDROOT
TORSDOF 0
REMARK  Name = ../refined-set-2016/2xhm/2xhm_pocket.pdb
REMARK  227 active torsions:
REMARK  status: ('A' for Active; 'I' for Inactive)
REMARK    1  A    between atoms: _1  and  _3
REMARK    2  A    between atoms: _3  and  _4
REMARK    3  A    between atoms: _3  and  _6
REMARK    4  A    between atoms: _6  and  _7
REMARK    5  A    between atoms: _10  and  _12
REMARK    6  A    between atoms: _12  and  _13
REMARK    7  A    between atoms: _12  and  _15
REMARK    8  A    between atoms: _15  and  _16
REMARK    9  A    between atoms: _16  and  _17
REMARK   10  A    between atoms: _20  and  _22
REMARK   11  A    between atoms: _22  and  _23
REMARK   12  A    between atoms: _22  and  _25
REMARK   13  A    between atoms: _25  and  _26
REMARK   14  A    between atoms: _29  and  _31
REMARK   15  A    between atoms: _31  and  _32
REMARK   16  A    between atoms: _31  and  _34
REMARK   17  A    between atoms: _34  and  _35
REMARK   18  A    between atoms: _35  and  _36
REMARK   19  A    between atoms: _39  and  _41
REMARK   20  A    between atoms: _41  and  _42
REMARK   21  A    between atoms: _45  and  _47
REMARK   22  A    between atoms: _47  and  _48
REMARK   23  A    between atoms: _51  and  _53
REMARK   24  A    between atoms: _53  and  _54
REMARK   25  A    between atoms: _53  and  _56
REMARK   26  A    between atoms: _56  and  _57
REMARK   27  A    between atoms: _67  and  _69
REMARK   28  A    between atoms: _69  and  _70
REMARK   29  A    between atoms: _69  and  _72
REMARK   30  A    between atoms: _72  and  _73
REMARK   31  A    between atoms: _73  and  _74
REMARK   32  A    between atoms: _74  and  _75
REMARK   33  A    between atoms: _75  and  _76
REMARK   34  A    between atoms: _80  and  _82
REMARK   35  A    between atoms: _82  and  _83
REMARK   36  A    between atoms: _82  and  _85
REMARK   37  A    between atoms: _85  and  _86
REMARK   38  A    between atoms: _88  and  _90
REMARK   39  A    between atoms: _90  and  _91
REMARK   40  A    between atoms: _90  and  _93
REMARK   41  A    between atoms: _93  and  _94
REMARK   42  A    between atoms: _94  and  _95
REMARK   43  A    between atoms: _98  and  _100
REMARK   44  A    between atoms: _100  and  _101
REMARK   45  A    between atoms: _100  and  _103
REMARK   46  A    between atoms: _103  and  _104
REMARK   47  A    between atoms: _104  and  _105
REMARK   48  A    between atoms: _110  and  _112
REMARK   49  A    between atoms: _112  and  _113
REMARK   50  A    between atoms: _112  and  _115
REMARK   51  A    between atoms: _118  and  _120
REMARK   52  A    between atoms: _120  and  _121
REMARK   53  A    between atoms: _120  and  _123
REMARK   54  A    between atoms: _123  and  _124
REMARK   55  A    between atoms: _129  and  _131
REMARK   56  A    between atoms: _131  and  _132
REMARK   57  A    between atoms: _135  and  _137
REMARK   58  A    between atoms: _137  and  _138
REMARK   59  A    between atoms: _137  and  _140
REMARK   60  A    between atoms: _140  and  _141
REMARK   61  A    between atoms: _143  and  _145
REMARK   62  A    between atoms: _145  and  _146
REMARK   63  A    between atoms: _149  and  _151
REMARK   64  A    between atoms: _151  and  _152
REMARK   65  A    between atoms: _151  and  _154
REMARK   66  A    between atoms: _154  and  _155
REMARK   67  A    between atoms: _165  and  _167
REMARK   68  A    between atoms: _167  and  _168
REMARK   69  A    between atoms: _167  and  _170
REMARK   70  A    between atoms: _170  and  _171
REMARK   71  A    between atoms: _174  and  _176
REMARK   72  A    between atoms: _176  and  _177
REMARK   73  A    between atoms: _176  and  _179
REMARK   74  A    between atoms: _179  and  _180
REMARK   75  A    between atoms: _186  and  _188
REMARK   76  A    between atoms: _188  and  _189
REMARK   77  A    between atoms: _188  and  _191
REMARK   78  A    between atoms: _191  and  _192
REMARK   79  A    between atoms: _197  and  _198
REMARK   80  A    between atoms: _200  and  _202
REMARK   81  A    between atoms: _202  and  _203
REMARK   82  A    between atoms: _202  and  _205
REMARK   83  A    between atoms: _205  and  _206
REMARK   84  A    between atoms: _209  and  _211
REMARK   85  A    between atoms: _211  and  _212
REMARK   86  A    between atoms: _211  and  _214
REMARK   87  A    between atoms: _217  and  _219
REMARK   88  A    between atoms: _219  and  _220
REMARK   89  A    between atoms: _219  and  _222
REMARK   90  A    between atoms: _222  and  _223
REMARK   91  A    between atoms: _223  and  _224
REMARK   92  A    between atoms: _224  and  _225
REMARK   93  A    between atoms: _234  and  _236
REMARK   94  A    between atoms: _236  and  _237
REMARK   95  A    between atoms: _236  and  _239
REMARK   96  A    between atoms: _239  and  _240
REMARK   97  A    between atoms: _243  and  _245
REMARK   98  A    between atoms: _245  and  _246
REMARK   99  A    between atoms: _245  and  _248
REMARK  100  A    between atoms: _248  and  _249
REMARK  101  A    between atoms: _249  and  _250
REMARK  102  A    between atoms: _250  and  _251
REMARK  103  A    between atoms: _251  and  _252
REMARK  104  A    between atoms: _256  and  _258
REMARK  105  A    between atoms: _258  and  _259
REMARK  106  A    between atoms: _258  and  _261
REMARK  107  A    between atoms: _261  and  _262
REMARK  108  A    between atoms: _262  and  _263
REMARK  109  A    between atoms: _268  and  _270
REMARK  110  A    between atoms: _270  and  _271
REMARK  111  A    between atoms: _270  and  _273
REMARK  112  A    between atoms: _273  and  _274
REMARK  113  A    between atoms: _277  and  _279
REMARK  114  A    between atoms: _290  and  _293
REMARK  115  A    between atoms: _293  and  _294
REMARK  116  A    between atoms: _294  and  _295
REMARK  117  A    between atoms: _300  and  _303
REMARK  118  A    between atoms: _303  and  _304
REMARK  119  A    between atoms: _314  and  _315
REMARK  120  A    between atoms: _323  and  _325
REMARK  121  A    between atoms: _325  and  _326
REMARK  122  A    between atoms: _325  and  _328
REMARK  123  A    between atoms: _328  and  _329
REMARK  124  A    between atoms: _332  and  _334
REMARK  125  A    between atoms: _334  and  _335
REMARK  126  A    between atoms: _334  and  _337
REMARK  127  A    between atoms: _337  and  _338
REMARK  128  A    between atoms: _343  and  _344
REMARK  129  A    between atoms: _346  and  _348
REMARK  130  A    between atoms: _348  and  _349
REMARK  131  A    between atoms: _348  and  _351
REMARK  132  A    between atoms: _351  and  _352
REMARK  133  A    between atoms: _358  and  _360
REMARK  134  A    between atoms: _360  and  _361
REMARK  135  A    between atoms: _360  and  _363
REMARK  136  A    between atoms: _363  and  _364
REMARK  137  A    between atoms: _369  and  _370
REMARK  138  A    between atoms: _372  and  _374
REMARK  139  A    between atoms: _374  and  _375
REMARK  140  A    between atoms: _374  and  _377
REMARK  141  A    between atoms: _377  and  _378
REMARK  142  A    between atoms: _384  and  _386
REMARK  143  A    between atoms: _386  and  _387
REMARK  144  A    between atoms: _386  and  _389
REMARK  145  A    between atoms: _389  and  _390
REMARK  146  A    between atoms: _390  and  _391
REMARK  147  A    between atoms: _391  and  _392
REMARK  148  A    between atoms: _401  and  _403
REMARK  149  A    between atoms: _403  and  _404
REMARK  150  A    between atoms: _403  and  _406
REMARK  151  A    between atoms: _406  and  _407
REMARK  152  A    between atoms: _410  and  _412
REMARK  153  A    between atoms: _412  and  _413
REMARK  154  A    between atoms: _415  and  _417
REMARK  155  A    between atoms: _417  and  _418
REMARK  156  A    between atoms: _421  and  _423
REMARK  157  A    between atoms: _423  and  _424
REMARK  158  A    between atoms: _423  and  _426
REMARK  159  A    between atoms: _426  and  _427
REMARK  160  A    between atoms: _433  and  _434
REMARK  161  A    between atoms: _439  and  _441
REMARK  162  A    between atoms: _441  and  _442
REMARK  163  A    between atoms: _444  and  _446
REMARK  164  A    between atoms: _446  and  _447
REMARK  165  A    between atoms: _446  and  _449
REMARK  166  A    between atoms: _449  and  _450
REMARK  167  A    between atoms: _456  and  _458
REMARK  168  A    between atoms: _458  and  _459
REMARK  169  A    between atoms: _458  and  _461
REMARK  170  A    between atoms: _461  and  _462
REMARK  171  A    between atoms: _467  and  _469
REMARK  172  A    between atoms: _469  and  _470
REMARK  173  A    between atoms: _469  and  _472
REMARK  174  A    between atoms: _472  and  _473
REMARK  175  A    between atoms: _473  and  _474
REMARK  176  A    between atoms: _474  and  _475
REMARK  177  A    between atoms: _475  and  ZN_601
REMARK  178  A    between atoms: _477  and  _479
REMARK  179  A    between atoms: _479  and  _480
REMARK  180  A    between atoms: _479  and  _482
REMARK  181  A    between atoms: _482  and  _483
REMARK  182  A    between atoms: _483  and  _484
REMARK  183  A    between atoms: _484  and  _485
REMARK  184  A    between atoms: _485  and  _486
REMARK  185  A    between atoms: _490  and  _492
REMARK  186  A    between atoms: _492  and  _493
REMARK  187  A    between atoms: _492  and  _495
REMARK  188  A    between atoms: _495  and  _496
REMARK  189  A    between atoms: _501  and  _502
REMARK  190  A    between atoms: _504  and  _506
REMARK  191  A    between atoms: _506  and  _507
REMARK  192  A    between atoms: _506  and  _509
REMARK  193  A    between atoms: _509  and  _510
REMARK  194  A    between atoms: _515  and  _517
REMARK  195  A    between atoms: _517  and  _518
REMARK  196  A    between atoms: _521  and  _523
REMARK  197  A    between atoms: _523  and  _524
REMARK  198  A    between atoms: _523  and  _526
REMARK  199  A    between atoms: _526  and  _527
REMARK  200  A    between atoms: _530  and  _532
REMARK  201  A    between atoms: _532  and  _533
REMARK  202  A    between atoms: _532  and  _535
REMARK  203  A    between atoms: _538  and  _540
REMARK  204  A    between atoms: _540  and  _541
REMARK  205  A    between atoms: _540  and  _543
REMARK  206  A    between atoms: _543  and  _544
REMARK  207  A    between atoms: _544  and  _545
REMARK  208  A    between atoms: _548  and  _550
REMARK  209  A    between atoms: _550  and  _551
REMARK  210  A    between atoms: _550  and  _553
REMARK  211  A    between atoms: _553  and  _554
REMARK  212  A    between atoms: _559  and  _560
REMARK  213  A    between atoms: _562  and  _564
REMARK  214  A    between atoms: _564  and  _565
REMARK  215  A    between atoms: _564  and  _567
REMARK  216  A    between atoms: _567  and  _568
REMARK  217  A    between atoms: _568  and  _569
REMARK  218  A    between atoms: _569  and  _570
REMARK  219  A    between atoms: _579  and  _581
REMARK  220  A    between atoms: _581  and  _582
REMARK  221  A    between atoms: _581  and  _584
REMARK  222  A    between atoms: _584  and  _585
REMARK  223  A    between atoms: _590  and  _591
REMARK  224  A    between atoms: _593  and  _595
REMARK  225  A    between atoms: _595  and  _596
REMARK  226  A    between atoms: _595  and  _598
REMARK  227  A    between atoms: _598  and  _599
REMARK                            x       y       z     vdW  Elec       q    Type
REMARK                         _______ _______ _______ _____ _____    ______ ____
ROOT
ATOM      1  O   HOH     1     -10.420  23.612  -5.675  0.00  0.00    +0.000 OA
ENDROOT
TORSDOF 0
REMARK  Name = ../refined-set-2016/2xhm/2xhm_pocket.pdb
REMARK  227 active torsions:
REMARK  status: ('A' for Active; 'I' for Inactive)
REMARK    1  A    between atoms: _1  and  _3
REMARK    2  A    between atoms: _3  and  _4
REMARK    3  A    between atoms: _3  and  _6
REMARK    4  A    between atoms: _6  and  _7
REMARK    5  A    between atoms: _10  and  _12
REMARK    6  A    between atoms: _12  and  _13
REMARK    7  A    between atoms: _12  and  _15
REMARK    8  A    between atoms: _15  and  _16
REMARK    9  A    between atoms: _16  and  _17
REMARK   10  A    between atoms: _20  and  _22
REMARK   11  A    between atoms: _22  and  _23
REMARK   12  A    between atoms: _22  and  _25
REMARK   13  A    between atoms: _25  and  _26
REMARK   14  A    between atoms: _29  and  _31
REMARK   15  A    between atoms: _31  and  _32
REMARK   16  A    between atoms: _31  and  _34
REMARK   17  A    between atoms: _34  and  _35
REMARK   18  A    between atoms: _35  and  _36
REMARK   19  A    between atoms: _39  and  _41
REMARK   20  A    between atoms: _41  and  _42
REMARK   21  A    between atoms: _45  and  _47
REMARK   22  A    between atoms: _47  and  _48
REMARK   23  A    between atoms: _51  and  _53
REMARK   24  A    between atoms: _53  and  _54
REMARK   25  A    between atoms: _53  and  _56
REMARK   26  A    between atoms: _56  and  _57
REMARK   27  A    between atoms: _67  and  _69
REMARK   28  A    between atoms: _69  and  _70
REMARK   29  A    between atoms: _69  and  _72
REMARK   30  A    between atoms: _72  and  _73
REMARK   31  A    between atoms: _73  and  _74
REMARK   32  A    between atoms: _74  and  _75
REMARK   33  A    between atoms: _75  and  _76
REMARK   34  A    between atoms: _80  and  _82
REMARK   35  A    between atoms: _82  and  _83
REMARK   36  A    between atoms: _82  and  _85
REMARK   37  A    between atoms: _85  and  _86
REMARK   38  A    between atoms: _88  and  _90
REMARK   39  A    between atoms: _90  and  _91
REMARK   40  A    between atoms: _90  and  _93
REMARK   41  A    between atoms: _93  and  _94
REMARK   42  A    between atoms: _94  and  _95
REMARK   43  A    between atoms: _98  and  _100
REMARK   44  A    between atoms: _100  and  _101
REMARK   45  A    between atoms: _100  and  _103
REMARK   46  A    between atoms: _103  and  _104
REMARK   47  A    between atoms: _104  and  _105
REMARK   48  A    between atoms: _110  and  _112
REMARK   49  A    between atoms: _112  and  _113
REMARK   50  A    between atoms: _112  and  _115
REMARK   51  A    between atoms: _118  and  _120
REMARK   52  A    between atoms: _120  and  _121
REMARK   53  A    between atoms: _120  and  _123
REMARK   54  A    between atoms: _123  and  _124
REMARK   55  A    between atoms: _129  and  _131
REMARK   56  A    between atoms: _131  and  _132
REMARK   57  A    between atoms: _135  and  _137
REMARK   58  A    between atoms: _137  and  _138
REMARK   59  A    between atoms: _137  and  _140
REMARK   60  A    between atoms: _140  and  _141
REMARK   61  A    between atoms: _143  and  _145
REMARK   62  A    between atoms: _145  and  _146
REMARK   63  A    between atoms: _149  and  _151
REMARK   64  A    between atoms: _151  and  _152
REMARK   65  A    between atoms: _151  and  _154
REMARK   66  A    between atoms: _154  and  _155
REMARK   67  A    between atoms: _165  and  _167
REMARK   68  A    between atoms: _167  and  _168
REMARK   69  A    between atoms: _167  and  _170
REMARK   70  A    between atoms: _170  and  _171
REMARK   71  A    between atoms: _174  and  _176
REMARK   72  A    between atoms: _176  and  _177
REMARK   73  A    between atoms: _176  and  _179
REMARK   74  A    between atoms: _179  and  _180
REMARK   75  A    between atoms: _186  and  _188
REMARK   76  A    between atoms: _188  and  _189
REMARK   77  A    between atoms: _188  and  _191
REMARK   78  A    between atoms: _191  and  _192
REMARK   79  A    between atoms: _197  and  _198
REMARK   80  A    between atoms: _200  and  _202
REMARK   81  A    between atoms: _202  and  _203
REMARK   82  A    between atoms: _202  and  _205
REMARK   83  A    between atoms: _205  and  _206
REMARK   84  A    between atoms: _209  and  _211
REMARK   85  A    between atoms: _211  and  _212
REMARK   86  A    between atoms: _211  and  _214
REMARK   87  A    between atoms: _217  and  _219
REMARK   88  A    between atoms: _219  and  _220
REMARK   89  A    between atoms: _219  and  _222
REMARK   90  A    between atoms: _222  and  _223
REMARK   91  A    between atoms: _223  and  _224
REMARK   92  A    between atoms: _224  and  _225
REMARK   93  A    between atoms: _234  and  _236
REMARK   94  A    between atoms: _236  and  _237
REMARK   95  A    between atoms: _236  and  _239
REMARK   96  A    between atoms: _239  and  _240
REMARK   97  A    between atoms: _243  and  _245
REMARK   98  A    between atoms: _245  and  _246
REMARK   99  A    between atoms: _245  and  _248
REMARK  100  A    between atoms: _248  and  _249
REMARK  101  A    between atoms: _249  and  _250
REMARK  102  A    between atoms: _250  and  _251
REMARK  103  A    between atoms: _251  and  _252
REMARK  104  A    between atoms: _256  and  _258
REMARK  105  A    between atoms: _258  and  _259
REMARK  106  A    between atoms: _258  and  _261
REMARK  107  A    between atoms: _261  and  _262
REMARK  108  A    between atoms: _262  and  _263
REMARK  109  A    between atoms: _268  and  _270
REMARK  110  A    between atoms: _270  and  _271
REMARK  111  A    between atoms: _270  and  _273
REMARK  112  A    between atoms: _273  and  _274
REMARK  113  A    between atoms: _277  and  _279
REMARK  114  A    between atoms: _290  and  _293
REMARK  115  A    between atoms: _293  and  _294
REMARK  116  A    between atoms: _294  and  _295
REMARK  117  A    between atoms: _300  and  _303
REMARK  118  A    between atoms: _303  and  _304
REMARK  119  A    between atoms: _314  and  _315
REMARK  120  A    between atoms: _323  and  _325
REMARK  121  A    between atoms: _325  and  _326
REMARK  122  A    between atoms: _325  and  _328
REMARK  123  A    between atoms: _328  and  _329
REMARK  124  A    between atoms: _332  and  _334
REMARK  125  A    between atoms: _334  and  _335
REMARK  126  A    between atoms: _334  and  _337
REMARK  127  A    between atoms: _337  and  _338
REMARK  128  A    between atoms: _343  and  _344
REMARK  129  A    between atoms: _346  and  _348
REMARK  130  A    between atoms: _348  and  _349
REMARK  131  A    between atoms: _348  and  _351
REMARK  132  A    between atoms: _351  and  _352
REMARK  133  A    between atoms: _358  and  _360
REMARK  134  A    between atoms: _360  and  _361
REMARK  135  A    between atoms: _360  and  _363
REMARK  136  A    between atoms: _363  and  _364
REMARK  137  A    between atoms: _369  and  _370
REMARK  138  A    between atoms: _372  and  _374
REMARK  139  A    between atoms: _374  and  _375
REMARK  140  A    between atoms: _374  and  _377
REMARK  141  A    between atoms: _377  and  _378
REMARK  142  A    between atoms: _384  and  _386
REMARK  143  A    between atoms: _386  and  _387
REMARK  144  A    between atoms: _386  and  _389
REMARK  145  A    between atoms: _389  and  _390
REMARK  146  A    between atoms: _390  and  _391
REMARK  147  A    between atoms: _391  and  _392
REMARK  148  A    between atoms: _401  and  _403
REMARK  149  A    between atoms: _403  and  _404
REMARK  150  A    between atoms: _403  and  _406
REMARK  151  A    between atoms: _406  and  _407
REMARK  152  A    between atoms: _410  and  _412
REMARK  153  A    between atoms: _412  and  _413
REMARK  154  A    between atoms: _415  and  _417
REMARK  155  A    between atoms: _417  and  _418
REMARK  156  A    between atoms: _421  and  _423
REMARK  157  A    between atoms: _423  and  _424
REMARK  158  A    between atoms: _423  and  _426
REMARK  159  A    between atoms: _426  and  _427
REMARK  160  A    between atoms: _433  and  _434
REMARK  161  A    between atoms: _439  and  _441
REMARK  162  A    between atoms: _441  and  _442
REMARK  163  A    between atoms: _444  and  _446
REMARK  164  A    between atoms: _446  and  _447
REMARK  165  A    between atoms: _446  and  _449
REMARK  166  A    between atoms: _449  and  _450
REMARK  167  A    between atoms: _456  and  _458
REMARK  168  A    between atoms: _458  and  _459
REMARK  169  A    between atoms: _458  and  _461
REMARK  170  A    between atoms: _461  and  _462
REMARK  171  A    between atoms: _467  and  _469
REMARK  172  A    between atoms: _469  and  _470
REMARK  173  A    between atoms: _469  and  _472
REMARK  174  A    between atoms: _472  and  _473
REMARK  175  A    between atoms: _473  and  _474
REMARK  176  A    between atoms: _474  and  _475
REMARK  177  A    between atoms: _475  and  ZN_601
REMARK  178  A    between atoms: _477  and  _479
REMARK  179  A    between atoms: _479  and  _480
REMARK  180  A    between atoms: _479  and  _482
REMARK  181  A    between atoms: _482  and  _483
REMARK  182  A    between atoms: _483  and  _484
REMARK  183  A    between atoms: _484  and  _485
REMARK  184  A    between atoms: _485  and  _486
REMARK  185  A    between atoms: _490  and  _492
REMARK  186  A    between atoms: _492  and  _493
REMARK  187  A    between atoms: _492  and  _495
REMARK  188  A    between atoms: _495  and  _496
REMARK  189  A    between atoms: _501  and  _502
REMARK  190  A    between atoms: _504  and  _506
REMARK  191  A    between atoms: _506  and  _507
REMARK  192  A    between atoms: _506  and  _509
REMARK  193  A    between atoms: _509  and  _510
REMARK  194  A    between atoms: _515  and  _517
REMARK  195  A    between atoms: _517  and  _518
REMARK  196  A    between atoms: _521  and  _523
REMARK  197  A    between atoms: _523  and  _524
REMARK  198  A    between atoms: _523  and  _526
REMARK  199  A    between atoms: _526  and  _527
REMARK  200  A    between atoms: _530  and  _532
REMARK  201  A    between atoms: _532  and  _533
REMARK  202  A    between atoms: _532  and  _535
REMARK  203  A    between atoms: _538  and  _540
REMARK  204  A    between atoms: _540  and  _541
REMARK  205  A    between atoms: _540  and  _543
REMARK  206  A    between atoms: _543  and  _544
REMARK  207  A    between atoms: _544  and  _545
REMARK  208  A    between atoms: _548  and  _550
REMARK  209  A    between atoms: _550  and  _551
REMARK  210  A    between atoms: _550  and  _553
REMARK  211  A    between atoms: _553  and  _554
REMARK  212  A    between atoms: _559  and  _560
REMARK  213  A    between atoms: _562  and  _564
REMARK  214  A    between atoms: _564  and  _565
REMARK  215  A    between atoms: _564  and  _567
REMARK  216  A    between atoms: _567  and  _568
REMARK  217  A    between atoms: _568  and  _569
REMARK  218  A    between atoms: _569  and  _570
REMARK  219  A    between atoms: _579  and  _581
REMARK  220  A    between atoms: _581  and  _582
REMARK  221  A    between atoms: _581  and  _584
REMARK  222  A    between atoms: _584  and  _585
REMARK  223  A    between atoms: _590  and  _591
REMARK  224  A    between atoms: _593  and  _595
REMARK  225  A    between atoms: _595  and  _596
REMARK  226  A    between atoms: _595  and  _598
REMARK  227  A    between atoms: _598  and  _599
REMARK                            x       y       z     vdW  Elec       q    Type
REMARK                         _______ _______ _______ _____ _____    ______ ____
ROOT
ATOM      1  O   HOH     1     -10.032  20.070  -4.577  0.00  0.00    +0.000 OA
ENDROOT
TORSDOF 0
REMARK  Name = ../refined-set-2016/2xhm/2xhm_pocket.pdb
REMARK  227 active torsions:
REMARK  status: ('A' for Active; 'I' for Inactive)
REMARK    1  A    between atoms: _1  and  _3
REMARK    2  A    between atoms: _3  and  _4
REMARK    3  A    between atoms: _3  and  _6
REMARK    4  A    between atoms: _6  and  _7
REMARK    5  A    between atoms: _10  and  _12
REMARK    6  A    between atoms: _12  and  _13
REMARK    7  A    between atoms: _12  and  _15
REMARK    8  A    between atoms: _15  and  _16
REMARK    9  A    between atoms: _16  and  _17
REMARK   10  A    between atoms: _20  and  _22
REMARK   11  A    between atoms: _22  and  _23
REMARK   12  A    between atoms: _22  and  _25
REMARK   13  A    between atoms: _25  and  _26
REMARK   14  A    between atoms: _29  and  _31
REMARK   15  A    between atoms: _31  and  _32
REMARK   16  A    between atoms: _31  and  _34
REMARK   17  A    between atoms: _34  and  _35
REMARK   18  A    between atoms: _35  and  _36
REMARK   19  A    between atoms: _39  and  _41
REMARK   20  A    between atoms: _41  and  _42
REMARK   21  A    between atoms: _45  and  _47
REMARK   22  A    between atoms: _47  and  _48
REMARK   23  A    between atoms: _51  and  _53
REMARK   24  A    between atoms: _53  and  _54
REMARK   25  A    between atoms: _53  and  _56
REMARK   26  A    between atoms: _56  and  _57
REMARK   27  A    between atoms: _67  and  _69
REMARK   28  A    between atoms: _69  and  _70
REMARK   29  A    between atoms: _69  and  _72
REMARK   30  A    between atoms: _72  and  _73
REMARK   31  A    between atoms: _73  and  _74
REMARK   32  A    between atoms: _74  and  _75
REMARK   33  A    between atoms: _75  and  _76
REMARK   34  A    between atoms: _80  and  _82
REMARK   35  A    between atoms: _82  and  _83
REMARK   36  A    between atoms: _82  and  _85
REMARK   37  A    between atoms: _85  and  _86
REMARK   38  A    between atoms: _88  and  _90
REMARK   39  A    between atoms: _90  and  _91
REMARK   40  A    between atoms: _90  and  _93
REMARK   41  A    between atoms: _93  and  _94
REMARK   42  A    between atoms: _94  and  _95
REMARK   43  A    between atoms: _98  and  _100
REMARK   44  A    between atoms: _100  and  _101
REMARK   45  A    between atoms: _100  and  _103
REMARK   46  A    between atoms: _103  and  _104
REMARK   47  A    between atoms: _104  and  _105
REMARK   48  A    between atoms: _110  and  _112
REMARK   49  A    between atoms: _112  and  _113
REMARK   50  A    between atoms: _112  and  _115
REMARK   51  A    between atoms: _118  and  _120
REMARK   52  A    between atoms: _120  and  _121
REMARK   53  A    between atoms: _120  and  _123
REMARK   54  A    between atoms: _123  and  _124
REMARK   55  A    between atoms: _129  and  _131
REMARK   56  A    between atoms: _131  and  _132
REMARK   57  A    between atoms: _135  and  _137
REMARK   58  A    between atoms: _137  and  _138
REMARK   59  A    between atoms: _137  and  _140
REMARK   60  A    between atoms: _140  and  _141
REMARK   61  A    between atoms: _143  and  _145
REMARK   62  A    between atoms: _145  and  _146
REMARK   63  A    between atoms: _149  and  _151
REMARK   64  A    between atoms: _151  and  _152
REMARK   65  A    between atoms: _151  and  _154
REMARK   66  A    between atoms: _154  and  _155
REMARK   67  A    between atoms: _165  and  _167
REMARK   68  A    between atoms: _167  and  _168
REMARK   69  A    between atoms: _167  and  _170
REMARK   70  A    between atoms: _170  and  _171
REMARK   71  A    between atoms: _174  and  _176
REMARK   72  A    between atoms: _176  and  _177
REMARK   73  A    between atoms: _176  and  _179
REMARK   74  A    between atoms: _179  and  _180
REMARK   75  A    between atoms: _186  and  _188
REMARK   76  A    between atoms: _188  and  _189
REMARK   77  A    between atoms: _188  and  _191
REMARK   78  A    between atoms: _191  and  _192
REMARK   79  A    between atoms: _197  and  _198
REMARK   80  A    between atoms: _200  and  _202
REMARK   81  A    between atoms: _202  and  _203
REMARK   82  A    between atoms: _202  and  _205
REMARK   83  A    between atoms: _205  and  _206
REMARK   84  A    between atoms: _209  and  _211
REMARK   85  A    between atoms: _211  and  _212
REMARK   86  A    between atoms: _211  and  _214
REMARK   87  A    between atoms: _217  and  _219
REMARK   88  A    between atoms: _219  and  _220
REMARK   89  A    between atoms: _219  and  _222
REMARK   90  A    between atoms: _222  and  _223
REMARK   91  A    between atoms: _223  and  _224
REMARK   92  A    between atoms: _224  and  _225
REMARK   93  A    between atoms: _234  and  _236
REMARK   94  A    between atoms: _236  and  _237
REMARK   95  A    between atoms: _236  and  _239
REMARK   96  A    between atoms: _239  and  _240
REMARK   97  A    between atoms: _243  and  _245
REMARK   98  A    between atoms: _245  and  _246
REMARK   99  A    between atoms: _245  and  _248
REMARK  100  A    between atoms: _248  and  _249
REMARK  101  A    between atoms: _249  and  _250
REMARK  102  A    between atoms: _250  and  _251
REMARK  103  A    between atoms: _251  and  _252
REMARK  104  A    between atoms: _256  and  _258
REMARK  105  A    between atoms: _258  and  _259
REMARK  106  A    between atoms: _258  and  _261
REMARK  107  A    between atoms: _261  and  _262
REMARK  108  A    between atoms: _262  and  _263
REMARK  109  A    between atoms: _268  and  _270
REMARK  110  A    between atoms: _270  and  _271
REMARK  111  A    between atoms: _270  and  _273
REMARK  112  A    between atoms: _273  and  _274
REMARK  113  A    between atoms: _277  and  _279
REMARK  114  A    between atoms: _290  and  _293
REMARK  115  A    between atoms: _293  and  _294
REMARK  116  A    between atoms: _294  and  _295
REMARK  117  A    between atoms: _300  and  _303
REMARK  118  A    between atoms: _303  and  _304
REMARK  119  A    between atoms: _314  and  _315
REMARK  120  A    between atoms: _323  and  _325
REMARK  121  A    between atoms: _325  and  _326
REMARK  122  A    between atoms: _325  and  _328
REMARK  123  A    between atoms: _328  and  _329
REMARK  124  A    between atoms: _332  and  _334
REMARK  125  A    between atoms: _334  and  _335
REMARK  126  A    between atoms: _334  and  _337
REMARK  127  A    between atoms: _337  and  _338
REMARK  128  A    between atoms: _343  and  _344
REMARK  129  A    between atoms: _346  and  _348
REMARK  130  A    between atoms: _348  and  _349
REMARK  131  A    between atoms: _348  and  _351
REMARK  132  A    between atoms: _351  and  _352
REMARK  133  A    between atoms: _358  and  _360
REMARK  134  A    between atoms: _360  and  _361
REMARK  135  A    between atoms: _360  and  _363
REMARK  136  A    between atoms: _363  and  _364
REMARK  137  A    between atoms: _369  and  _370
REMARK  138  A    between atoms: _372  and  _374
REMARK  139  A    between atoms: _374  and  _375
REMARK  140  A    between atoms: _374  and  _377
REMARK  141  A    between atoms: _377  and  _378
REMARK  142  A    between atoms: _384  and  _386
REMARK  143  A    between atoms: _386  and  _387
REMARK  144  A    between atoms: _386  and  _389
REMARK  145  A    between atoms: _389  and  _390
REMARK  146  A    between atoms: _390  and  _391
REMARK  147  A    between atoms: _391  and  _392
REMARK  148  A    between atoms: _401  and  _403
REMARK  149  A    between atoms: _403  and  _404
REMARK  150  A    between atoms: _403  and  _406
REMARK  151  A    between atoms: _406  and  _407
REMARK  152  A    between atoms: _410  and  _412
REMARK  153  A    between atoms: _412  and  _413
REMARK  154  A    between atoms: _415  and  _417
REMARK  155  A    between atoms: _417  and  _418
REMARK  156  A    between atoms: _421  and  _423
REMARK  157  A    between atoms: _423  and  _424
REMARK  158  A    between atoms: _423  and  _426
REMARK  159  A    between atoms: _426  and  _427
REMARK  160  A    between atoms: _433  and  _434
REMARK  161  A    between atoms: _439  and  _441
REMARK  162  A    between atoms: _441  and  _442
REMARK  163  A    between atoms: _444  and  _446
REMARK  164  A    between atoms: _446  and  _447
REMARK  165  A    between atoms: _446  and  _449
REMARK  166  A    between atoms: _449  and  _450
REMARK  167  A    between atoms: _456  and  _458
REMARK  168  A    between atoms: _458  and  _459
REMARK  169  A    between atoms: _458  and  _461
REMARK  170  A    between atoms: _461  and  _462
REMARK  171  A    between atoms: _467  and  _469
REMARK  172  A    between atoms: _469  and  _470
REMARK  173  A    between atoms: _469  and  _472
REMARK  174  A    between atoms: _472  and  _473
REMARK  175  A    between atoms: _473  and  _474
REMARK  176  A    between atoms: _474  and  _475
REMARK  177  A    between atoms: _475  and  ZN_601
REMARK  178  A    between atoms: _477  and  _479
REMARK  179  A    between atoms: _479  and  _480
REMARK  180  A    between atoms: _479  and  _482
REMARK  181  A    between atoms: _482  and  _483
REMARK  182  A    between atoms: _483  and  _484
REMARK  183  A    between atoms: _484  and  _485
REMARK  184  A    between atoms: _485  and  _486
REMARK  185  A    between atoms: _490  and  _492
REMARK  186  A    between atoms: _492  and  _493
REMARK  187  A    between atoms: _492  and  _495
REMARK  188  A    between atoms: _495  and  _496
REMARK  189  A    between atoms: _501  and  _502
REMARK  190  A    between atoms: _504  and  _506
REMARK  191  A    between atoms: _506  and  _507
REMARK  192  A    between atoms: _506  and  _509
REMARK  193  A    between atoms: _509  and  _510
REMARK  194  A    between atoms: _515  and  _517
REMARK  195  A    between atoms: _517  and  _518
REMARK  196  A    between atoms: _521  and  _523
REMARK  197  A    between atoms: _523  and  _524
REMARK  198  A    between atoms: _523  and  _526
REMARK  199  A    between atoms: _526  and  _527
REMARK  200  A    between atoms: _530  and  _532
REMARK  201  A    between atoms: _532  and  _533
REMARK  202  A    between atoms: _532  and  _535
REMARK  203  A    between atoms: _538  and  _540
REMARK  204  A    between atoms: _540  and  _541
REMARK  205  A    between atoms: _540  and  _543
REMARK  206  A    between atoms: _543  and  _544
REMARK  207  A    between atoms: _544  and  _545
REMARK  208  A    between atoms: _548  and  _550
REMARK  209  A    between atoms: _550  and  _551
REMARK  210  A    between atoms: _550  and  _553
REMARK  211  A    between atoms: _553  and  _554
REMARK  212  A    between atoms: _559  and  _560
REMARK  213  A    between atoms: _562  and  _564
REMARK  214  A    between atoms: _564  and  _565
REMARK  215  A    between atoms: _564  and  _567
REMARK  216  A    between atoms: _567  and  _568
REMARK  217  A    between atoms: _568  and  _569
REMARK  218  A    between atoms: _569  and  _570
REMARK  219  A    between atoms: _579  and  _581
REMARK  220  A    between atoms: _581  and  _582
REMARK  221  A    between atoms: _581  and  _584
REMARK  222  A    between atoms: _584  and  _585
REMARK  223  A    between atoms: _590  and  _591
REMARK  224  A    between atoms: _593  and  _595
REMARK  225  A    between atoms: _595  and  _596
REMARK  226  A    between atoms: _595  and  _598
REMARK  227  A    between atoms: _598  and  _599
REMARK                            x       y       z     vdW  Elec       q    Type
REMARK                         _______ _______ _______ _____ _____    ______ ____
ROOT
ATOM      1  O   HOH     1     -17.741  24.915  -2.850  0.00  0.00    +0.000 OA
ENDROOT
TORSDOF 0
REMARK  Name = ../refined-set-2016/2xhm/2xhm_pocket.pdb
REMARK  227 active torsions:
REMARK  status: ('A' for Active; 'I' for Inactive)
REMARK    1  A    between atoms: _1  and  _3
REMARK    2  A    between atoms: _3  and  _4
REMARK    3  A    between atoms: _3  and  _6
REMARK    4  A    between atoms: _6  and  _7
REMARK    5  A    between atoms: _10  and  _12
REMARK    6  A    between atoms: _12  and  _13
REMARK    7  A    between atoms: _12  and  _15
REMARK    8  A    between atoms: _15  and  _16
REMARK    9  A    between atoms: _16  and  _17
REMARK   10  A    between atoms: _20  and  _22
REMARK   11  A    between atoms: _22  and  _23
REMARK   12  A    between atoms: _22  and  _25
REMARK   13  A    between atoms: _25  and  _26
REMARK   14  A    between atoms: _29  and  _31
REMARK   15  A    between atoms: _31  and  _32
REMARK   16  A    between atoms: _31  and  _34
REMARK   17  A    between atoms: _34  and  _35
REMARK   18  A    between atoms: _35  and  _36
REMARK   19  A    between atoms: _39  and  _41
REMARK   20  A    between atoms: _41  and  _42
REMARK   21  A    between atoms: _45  and  _47
REMARK   22  A    between atoms: _47  and  _48
REMARK   23  A    between atoms: _51  and  _53
REMARK   24  A    between atoms: _53  and  _54
REMARK   25  A    between atoms: _53  and  _56
REMARK   26  A    between atoms: _56  and  _57
REMARK   27  A    between atoms: _67  and  _69
REMARK   28  A    between atoms: _69  and  _70
REMARK   29  A    between atoms: _69  and  _72
REMARK   30  A    between atoms: _72  and  _73
REMARK   31  A    between atoms: _73  and  _74
REMARK   32  A    between atoms: _74  and  _75
REMARK   33  A    between atoms: _75  and  _76
REMARK   34  A    between atoms: _80  and  _82
REMARK   35  A    between atoms: _82  and  _83
REMARK   36  A    between atoms: _82  and  _85
REMARK   37  A    between atoms: _85  and  _86
REMARK   38  A    between atoms: _88  and  _90
REMARK   39  A    between atoms: _90  and  _91
REMARK   40  A    between atoms: _90  and  _93
REMARK   41  A    between atoms: _93  and  _94
REMARK   42  A    between atoms: _94  and  _95
REMARK   43  A    between atoms: _98  and  _100
REMARK   44  A    between atoms: _100  and  _101
REMARK   45  A    between atoms: _100  and  _103
REMARK   46  A    between atoms: _103  and  _104
REMARK   47  A    between atoms: _104  and  _105
REMARK   48  A    between atoms: _110  and  _112
REMARK   49  A    between atoms: _112  and  _113
REMARK   50  A    between atoms: _112  and  _115
REMARK   51  A    between atoms: _118  and  _120
REMARK   52  A    between atoms: _120  and  _121
REMARK   53  A    between atoms: _120  and  _123
REMARK   54  A    between atoms: _123  and  _124
REMARK   55  A    between atoms: _129  and  _131
REMARK   56  A    between atoms: _131  and  _132
REMARK   57  A    between atoms: _135  and  _137
REMARK   58  A    between atoms: _137  and  _138
REMARK   59  A    between atoms: _137  and  _140
REMARK   60  A    between atoms: _140  and  _141
REMARK   61  A    between atoms: _143  and  _145
REMARK   62  A    between atoms: _145  and  _146
REMARK   63  A    between atoms: _149  and  _151
REMARK   64  A    between atoms: _151  and  _152
REMARK   65  A    between atoms: _151  and  _154
REMARK   66  A    between atoms: _154  and  _155
REMARK   67  A    between atoms: _165  and  _167
REMARK   68  A    between atoms: _167  and  _168
REMARK   69  A    between atoms: _167  and  _170
REMARK   70  A    between atoms: _170  and  _171
REMARK   71  A    between atoms: _174  and  _176
REMARK   72  A    between atoms: _176  and  _177
REMARK   73  A    between atoms: _176  and  _179
REMARK   74  A    between atoms: _179  and  _180
REMARK   75  A    between atoms: _186  and  _188
REMARK   76  A    between atoms: _188  and  _189
REMARK   77  A    between atoms: _188  and  _191
REMARK   78  A    between atoms: _191  and  _192
REMARK   79  A    between atoms: _197  and  _198
REMARK   80  A    between atoms: _200  and  _202
REMARK   81  A    between atoms: _202  and  _203
REMARK   82  A    between atoms: _202  and  _205
REMARK   83  A    between atoms: _205  and  _206
REMARK   84  A    between atoms: _209  and  _211
REMARK   85  A    between atoms: _211  and  _212
REMARK   86  A    between atoms: _211  and  _214
REMARK   87  A    between atoms: _217  and  _219
REMARK   88  A    between atoms: _219  and  _220
REMARK   89  A    between atoms: _219  and  _222
REMARK   90  A    between atoms: _222  and  _223
REMARK   91  A    between atoms: _223  and  _224
REMARK   92  A    between atoms: _224  and  _225
REMARK   93  A    between atoms: _234  and  _236
REMARK   94  A    between atoms: _236  and  _237
REMARK   95  A    between atoms: _236  and  _239
REMARK   96  A    between atoms: _239  and  _240
REMARK   97  A    between atoms: _243  and  _245
REMARK   98  A    between atoms: _245  and  _246
REMARK   99  A    between atoms: _245  and  _248
REMARK  100  A    between atoms: _248  and  _249
REMARK  101  A    between atoms: _249  and  _250
REMARK  102  A    between atoms: _250  and  _251
REMARK  103  A    between atoms: _251  and  _252
REMARK  104  A    between atoms: _256  and  _258
REMARK  105  A    between atoms: _258  and  _259
REMARK  106  A    between atoms: _258  and  _261
REMARK  107  A    between atoms: _261  and  _262
REMARK  108  A    between atoms: _262  and  _263
REMARK  109  A    between atoms: _268  and  _270
REMARK  110  A    between atoms: _270  and  _271
REMARK  111  A    between atoms: _270  and  _273
REMARK  112  A    between atoms: _273  and  _274
REMARK  113  A    between atoms: _277  and  _279
REMARK  114  A    between atoms: _290  and  _293
REMARK  115  A    between atoms: _293  and  _294
REMARK  116  A    between atoms: _294  and  _295
REMARK  117  A    between atoms: _300  and  _303
REMARK  118  A    between atoms: _303  and  _304
REMARK  119  A    between atoms: _314  and  _315
REMARK  120  A    between atoms: _323  and  _325
REMARK  121  A    between atoms: _325  and  _326
REMARK  122  A    between atoms: _325  and  _328
REMARK  123  A    between atoms: _328  and  _329
REMARK  124  A    between atoms: _332  and  _334
REMARK  125  A    between atoms: _334  and  _335
REMARK  126  A    between atoms: _334  and  _337
REMARK  127  A    between atoms: _337  and  _338
REMARK  128  A    between atoms: _343  and  _344
REMARK  129  A    between atoms: _346  and  _348
REMARK  130  A    between atoms: _348  and  _349
REMARK  131  A    between atoms: _348  and  _351
REMARK  132  A    between atoms: _351  and  _352
REMARK  133  A    between atoms: _358  and  _360
REMARK  134  A    between atoms: _360  and  _361
REMARK  135  A    between atoms: _360  and  _363
REMARK  136  A    between atoms: _363  and  _364
REMARK  137  A    between atoms: _369  and  _370
REMARK  138  A    between atoms: _372  and  _374
REMARK  139  A    between atoms: _374  and  _375
REMARK  140  A    between atoms: _374  and  _377
REMARK  141  A    between atoms: _377  and  _378
REMARK  142  A    between atoms: _384  and  _386
REMARK  143  A    between atoms: _386  and  _387
REMARK  144  A    between atoms: _386  and  _389
REMARK  145  A    between atoms: _389  and  _390
REMARK  146  A    between atoms: _390  and  _391
REMARK  147  A    between atoms: _391  and  _392
REMARK  148  A    between atoms: _401  and  _403
REMARK  149  A    between atoms: _403  and  _404
REMARK  150  A    between atoms: _403  and  _406
REMARK  151  A    between atoms: _406  and  _407
REMARK  152  A    between atoms: _410  and  _412
REMARK  153  A    between atoms: _412  and  _413
REMARK  154  A    between atoms: _415  and  _417
REMARK  155  A    between atoms: _417  and  _418
REMARK  156  A    between atoms: _421  and  _423
REMARK  157  A    between atoms: _423  and  _424
REMARK  158  A    between atoms: _423  and  _426
REMARK  159  A    between atoms: _426  and  _427
REMARK  160  A    between atoms: _433  and  _434
REMARK  161  A    between atoms: _439  and  _441
REMARK  162  A    between atoms: _441  and  _442
REMARK  163  A    between atoms: _444  and  _446
REMARK  164  A    between atoms: _446  and  _447
REMARK  165  A    between atoms: _446  and  _449
REMARK  166  A    between atoms: _449  and  _450
REMARK  167  A    between atoms: _456  and  _458
REMARK  168  A    between atoms: _458  and  _459
REMARK  169  A    between atoms: _458  and  _461
REMARK  170  A    between atoms: _461  and  _462
REMARK  171  A    between atoms: _467  and  _469
REMARK  172  A    between atoms: _469  and  _470
REMARK  173  A    between atoms: _469  and  _472
REMARK  174  A    between atoms: _472  and  _473
REMARK  175  A    between atoms: _473  and  _474
REMARK  176  A    between atoms: _474  and  _475
REMARK  177  A    between atoms: _475  and  ZN_601
REMARK  178  A    between atoms: _477  and  _479
REMARK  179  A    between atoms: _479  and  _480
REMARK  180  A    between atoms: _479  and  _482
REMARK  181  A    between atoms: _482  and  _483
REMARK  182  A    between atoms: _483  and  _484
REMARK  183  A    between atoms: _484  and  _485
REMARK  184  A    between atoms: _485  and  _486
REMARK  185  A    between atoms: _490  and  _492
REMARK  186  A    between atoms: _492  and  _493
REMARK  187  A    between atoms: _492  and  _495
REMARK  188  A    between atoms: _495  and  _496
REMARK  189  A    between atoms: _501  and  _502
REMARK  190  A    between atoms: _504  and  _506
REMARK  191  A    between atoms: _506  and  _507
REMARK  192  A    between atoms: _506  and  _509
REMARK  193  A    between atoms: _509  and  _510
REMARK  194  A    between atoms: _515  and  _517
REMARK  195  A    between atoms: _517  and  _518
REMARK  196  A    between atoms: _521  and  _523
REMARK  197  A    between atoms: _523  and  _524
REMARK  198  A    between atoms: _523  and  _526
REMARK  199  A    between atoms: _526  and  _527
REMARK  200  A    between atoms: _530  and  _532
REMARK  201  A    between atoms: _532  and  _533
REMARK  202  A    between atoms: _532  and  _535
REMARK  203  A    between atoms: _538  and  _540
REMARK  204  A    between atoms: _540  and  _541
REMARK  205  A    between atoms: _540  and  _543
REMARK  206  A    between atoms: _543  and  _544
REMARK  207  A    between atoms: _544  and  _545
REMARK  208  A    between atoms: _548  and  _550
REMARK  209  A    between atoms: _550  and  _551
REMARK  210  A    between atoms: _550  and  _553
REMARK  211  A    between atoms: _553  and  _554
REMARK  212  A    between atoms: _559  and  _560
REMARK  213  A    between atoms: _562  and  _564
REMARK  214  A    between atoms: _564  and  _565
REMARK  215  A    between atoms: _564  and  _567
REMARK  216  A    between atoms: _567  and  _568
REMARK  217  A    between atoms: _568  and  _569
REMARK  218  A    between atoms: _569  and  _570
REMARK  219  A    between atoms: _579  and  _581
REMARK  220  A    between atoms: _581  and  _582
REMARK  221  A    between atoms: _581  and  _584
REMARK  222  A    between atoms: _584  and  _585
REMARK  223  A    between atoms: _590  and  _591
REMARK  224  A    between atoms: _593  and  _595
REMARK  225  A    between atoms: _595  and  _596
REMARK  226  A    between atoms: _595  and  _598
REMARK  227  A    between atoms: _598  and  _599
REMARK                            x       y       z     vdW  Elec       q    Type
REMARK                         _______ _______ _______ _____ _____    ______ ____
ROOT
ATOM      1  O   HOH     1     -16.947  20.437  -4.492  0.00  0.00    +0.000 OA
ENDROOT
TORSDOF 0
REMARK  Name = ../refined-set-2016/2xhm/2xhm_pocket.pdb
REMARK  227 active torsions:
REMARK  status: ('A' for Active; 'I' for Inactive)
REMARK    1  A    between atoms: _1  and  _3
REMARK    2  A    between atoms: _3  and  _4
REMARK    3  A    between atoms: _3  and  _6
REMARK    4  A    between atoms: _6  and  _7
REMARK    5  A    between atoms: _10  and  _12
REMARK    6  A    between atoms: _12  and  _13
REMARK    7  A    between atoms: _12  and  _15
REMARK    8  A    between atoms: _15  and  _16
REMARK    9  A    between atoms: _16  and  _17
REMARK   10  A    between atoms: _20  and  _22
REMARK   11  A    between atoms: _22  and  _23
REMARK   12  A    between atoms: _22  and  _25
REMARK   13  A    between atoms: _25  and  _26
REMARK   14  A    between atoms: _29  and  _31
REMARK   15  A    between atoms: _31  and  _32
REMARK   16  A    between atoms: _31  and  _34
REMARK   17  A    between atoms: _34  and  _35
REMARK   18  A    between atoms: _35  and  _36
REMARK   19  A    between atoms: _39  and  _41
REMARK   20  A    between atoms: _41  and  _42
REMARK   21  A    between atoms: _45  and  _47
REMARK   22  A    between atoms: _47  and  _48
REMARK   23  A    between atoms: _51  and  _53
REMARK   24  A    between atoms: _53  and  _54
REMARK   25  A    between atoms: _53  and  _56
REMARK   26  A    between atoms: _56  and  _57
REMARK   27  A    between atoms: _67  and  _69
REMARK   28  A    between atoms: _69  and  _70
REMARK   29  A    between atoms: _69  and  _72
REMARK   30  A    between atoms: _72  and  _73
REMARK   31  A    between atoms: _73  and  _74
REMARK   32  A    between atoms: _74  and  _75
REMARK   33  A    between atoms: _75  and  _76
REMARK   34  A    between atoms: _80  and  _82
REMARK   35  A    between atoms: _82  and  _83
REMARK   36  A    between atoms: _82  and  _85
REMARK   37  A    between atoms: _85  and  _86
REMARK   38  A    between atoms: _88  and  _90
REMARK   39  A    between atoms: _90  and  _91
REMARK   40  A    between atoms: _90  and  _93
REMARK   41  A    between atoms: _93  and  _94
REMARK   42  A    between atoms: _94  and  _95
REMARK   43  A    between atoms: _98  and  _100
REMARK   44  A    between atoms: _100  and  _101
REMARK   45  A    between atoms: _100  and  _103
REMARK   46  A    between atoms: _103  and  _104
REMARK   47  A    between atoms: _104  and  _105
REMARK   48  A    between atoms: _110  and  _112
REMARK   49  A    between atoms: _112  and  _113
REMARK   50  A    between atoms: _112  and  _115
REMARK   51  A    between atoms: _118  and  _120
REMARK   52  A    between atoms: _120  and  _121
REMARK   53  A    between atoms: _120  and  _123
REMARK   54  A    between atoms: _123  and  _124
REMARK   55  A    between atoms: _129  and  _131
REMARK   56  A    between atoms: _131  and  _132
REMARK   57  A    between atoms: _135  and  _137
REMARK   58  A    between atoms: _137  and  _138
REMARK   59  A    between atoms: _137  and  _140
REMARK   60  A    between atoms: _140  and  _141
REMARK   61  A    between atoms: _143  and  _145
REMARK   62  A    between atoms: _145  and  _146
REMARK   63  A    between atoms: _149  and  _151
REMARK   64  A    between atoms: _151  and  _152
REMARK   65  A    between atoms: _151  and  _154
REMARK   66  A    between atoms: _154  and  _155
REMARK   67  A    between atoms: _165  and  _167
REMARK   68  A    between atoms: _167  and  _168
REMARK   69  A    between atoms: _167  and  _170
REMARK   70  A    between atoms: _170  and  _171
REMARK   71  A    between atoms: _174  and  _176
REMARK   72  A    between atoms: _176  and  _177
REMARK   73  A    between atoms: _176  and  _179
REMARK   74  A    between atoms: _179  and  _180
REMARK   75  A    between atoms: _186  and  _188
REMARK   76  A    between atoms: _188  and  _189
REMARK   77  A    between atoms: _188  and  _191
REMARK   78  A    between atoms: _191  and  _192
REMARK   79  A    between atoms: _197  and  _198
REMARK   80  A    between atoms: _200  and  _202
REMARK   81  A    between atoms: _202  and  _203
REMARK   82  A    between atoms: _202  and  _205
REMARK   83  A    between atoms: _205  and  _206
REMARK   84  A    between atoms: _209  and  _211
REMARK   85  A    between atoms: _211  and  _212
REMARK   86  A    between atoms: _211  and  _214
REMARK   87  A    between atoms: _217  and  _219
REMARK   88  A    between atoms: _219  and  _220
REMARK   89  A    between atoms: _219  and  _222
REMARK   90  A    between atoms: _222  and  _223
REMARK   91  A    between atoms: _223  and  _224
REMARK   92  A    between atoms: _224  and  _225
REMARK   93  A    between atoms: _234  and  _236
REMARK   94  A    between atoms: _236  and  _237
REMARK   95  A    between atoms: _236  and  _239
REMARK   96  A    between atoms: _239  and  _240
REMARK   97  A    between atoms: _243  and  _245
REMARK   98  A    between atoms: _245  and  _246
REMARK   99  A    between atoms: _245  and  _248
REMARK  100  A    between atoms: _248  and  _249
REMARK  101  A    between atoms: _249  and  _250
REMARK  102  A    between atoms: _250  and  _251
REMARK  103  A    between atoms: _251  and  _252
REMARK  104  A    between atoms: _256  and  _258
REMARK  105  A    between atoms: _258  and  _259
REMARK  106  A    between atoms: _258  and  _261
REMARK  107  A    between atoms: _261  and  _262
REMARK  108  A    between atoms: _262  and  _263
REMARK  109  A    between atoms: _268  and  _270
REMARK  110  A    between atoms: _270  and  _271
REMARK  111  A    between atoms: _270  and  _273
REMARK  112  A    between atoms: _273  and  _274
REMARK  113  A    between atoms: _277  and  _279
REMARK  114  A    between atoms: _290  and  _293
REMARK  115  A    between atoms: _293  and  _294
REMARK  116  A    between atoms: _294  and  _295
REMARK  117  A    between atoms: _300  and  _303
REMARK  118  A    between atoms: _303  and  _304
REMARK  119  A    between atoms: _314  and  _315
REMARK  120  A    between atoms: _323  and  _325
REMARK  121  A    between atoms: _325  and  _326
REMARK  122  A    between atoms: _325  and  _328
REMARK  123  A    between atoms: _328  and  _329
REMARK  124  A    between atoms: _332  and  _334
REMARK  125  A    between atoms: _334  and  _335
REMARK  126  A    between atoms: _334  and  _337
REMARK  127  A    between atoms: _337  and  _338
REMARK  128  A    between atoms: _343  and  _344
REMARK  129  A    between atoms: _346  and  _348
REMARK  130  A    between atoms: _348  and  _349
REMARK  131  A    between atoms: _348  and  _351
REMARK  132  A    between atoms: _351  and  _352
REMARK  133  A    between atoms: _358  and  _360
REMARK  134  A    between atoms: _360  and  _361
REMARK  135  A    between atoms: _360  and  _363
REMARK  136  A    between atoms: _363  and  _364
REMARK  137  A    between atoms: _369  and  _370
REMARK  138  A    between atoms: _372  and  _374
REMARK  139  A    between atoms: _374  and  _375
REMARK  140  A    between atoms: _374  and  _377
REMARK  141  A    between atoms: _377  and  _378
REMARK  142  A    between atoms: _384  and  _386
REMARK  143  A    between atoms: _386  and  _387
REMARK  144  A    between atoms: _386  and  _389
REMARK  145  A    between atoms: _389  and  _390
REMARK  146  A    between atoms: _390  and  _391
REMARK  147  A    between atoms: _391  and  _392
REMARK  148  A    between atoms: _401  and  _403
REMARK  149  A    between atoms: _403  and  _404
REMARK  150  A    between atoms: _403  and  _406
REMARK  151  A    between atoms: _406  and  _407
REMARK  152  A    between atoms: _410  and  _412
REMARK  153  A    between atoms: _412  and  _413
REMARK  154  A    between atoms: _415  and  _417
REMARK  155  A    between atoms: _417  and  _418
REMARK  156  A    between atoms: _421  and  _423
REMARK  157  A    between atoms: _423  and  _424
REMARK  158  A    between atoms: _423  and  _426
REMARK  159  A    between atoms: _426  and  _427
REMARK  160  A    between atoms: _433  and  _434
REMARK  161  A    between atoms: _439  and  _441
REMARK  162  A    between atoms: _441  and  _442
REMARK  163  A    between atoms: _444  and  _446
REMARK  164  A    between atoms: _446  and  _447
REMARK  165  A    between atoms: _446  and  _449
REMARK  166  A    between atoms: _449  and  _450
REMARK  167  A    between atoms: _456  and  _458
REMARK  168  A    between atoms: _458  and  _459
REMARK  169  A    between atoms: _458  and  _461
REMARK  170  A    between atoms: _461  and  _462
REMARK  171  A    between atoms: _467  and  _469
REMARK  172  A    between atoms: _469  and  _470
REMARK  173  A    between atoms: _469  and  _472
REMARK  174  A    between atoms: _472  and  _473
REMARK  175  A    between atoms: _473  and  _474
REMARK  176  A    between atoms: _474  and  _475
REMARK  177  A    between atoms: _475  and  ZN_601
REMARK  178  A    between atoms: _477  and  _479
REMARK  179  A    between atoms: _479  and  _480
REMARK  180  A    between atoms: _479  and  _482
REMARK  181  A    between atoms: _482  and  _483
REMARK  182  A    between atoms: _483  and  _484
REMARK  183  A    between atoms: _484  and  _485
REMARK  184  A    between atoms: _485  and  _486
REMARK  185  A    between atoms: _490  and  _492
REMARK  186  A    between atoms: _492  and  _493
REMARK  187  A    between atoms: _492  and  _495
REMARK  188  A    between atoms: _495  and  _496
REMARK  189  A    between atoms: _501  and  _502
REMARK  190  A    between atoms: _504  and  _506
REMARK  191  A    between atoms: _506  and  _507
REMARK  192  A    between atoms: _506  and  _509
REMARK  193  A    between atoms: _509  and  _510
REMARK  194  A    between atoms: _515  and  _517
REMARK  195  A    between atoms: _517  and  _518
REMARK  196  A    between atoms: _521  and  _523
REMARK  197  A    between atoms: _523  and  _524
REMARK  198  A    between atoms: _523  and  _526
REMARK  199  A    between atoms: _526  and  _527
REMARK  200  A    between atoms: _530  and  _532
REMARK  201  A    between atoms: _532  and  _533
REMARK  202  A    between atoms: _532  and  _535
REMARK  203  A    between atoms: _538  and  _540
REMARK  204  A    between atoms: _540  and  _541
REMARK  205  A    between atoms: _540  and  _543
REMARK  206  A    between atoms: _543  and  _544
REMARK  207  A    between atoms: _544  and  _545
REMARK  208  A    between atoms: _548  and  _550
REMARK  209  A    between atoms: _550  and  _551
REMARK  210  A    between atoms: _550  and  _553
REMARK  211  A    between atoms: _553  and  _554
REMARK  212  A    between atoms: _559  and  _560
REMARK  213  A    between atoms: _562  and  _564
REMARK  214  A    between atoms: _564  and  _565
REMARK  215  A    between atoms: _564  and  _567
REMARK  216  A    between atoms: _567  and  _568
REMARK  217  A    between atoms: _568  and  _569
REMARK  218  A    between atoms: _569  and  _570
REMARK  219  A    between atoms: _579  and  _581
REMARK  220  A    between atoms: _581  and  _582
REMARK  221  A    between atoms: _581  and  _584
REMARK  222  A    between atoms: _584  and  _585
REMARK  223  A    between atoms: _590  and  _591
REMARK  224  A    between atoms: _593  and  _595
REMARK  225  A    between atoms: _595  and  _596
REMARK  226  A    between atoms: _595  and  _598
REMARK  227  A    between atoms: _598  and  _599
REMARK                            x       y       z     vdW  Elec       q    Type
REMARK                         _______ _______ _______ _____ _____    ______ ____
ROOT
ATOM      1  O   HOH     1      -2.297  17.910 -20.811  0.00  0.00    +0.000 OA
ENDROOT
TORSDOF 0
REMARK  Name = ../refined-set-2016/2xhm/2xhm_pocket.pdb
REMARK  227 active torsions:
REMARK  status: ('A' for Active; 'I' for Inactive)
REMARK    1  A    between atoms: _1  and  _3
REMARK    2  A    between atoms: _3  and  _4
REMARK    3  A    between atoms: _3  and  _6
REMARK    4  A    between atoms: _6  and  _7
REMARK    5  A    between atoms: _10  and  _12
REMARK    6  A    between atoms: _12  and  _13
REMARK    7  A    between atoms: _12  and  _15
REMARK    8  A    between atoms: _15  and  _16
REMARK    9  A    between atoms: _16  and  _17
REMARK   10  A    between atoms: _20  and  _22
REMARK   11  A    between atoms: _22  and  _23
REMARK   12  A    between atoms: _22  and  _25
REMARK   13  A    between atoms: _25  and  _26
REMARK   14  A    between atoms: _29  and  _31
REMARK   15  A    between atoms: _31  and  _32
REMARK   16  A    between atoms: _31  and  _34
REMARK   17  A    between atoms: _34  and  _35
REMARK   18  A    between atoms: _35  and  _36
REMARK   19  A    between atoms: _39  and  _41
REMARK   20  A    between atoms: _41  and  _42
REMARK   21  A    between atoms: _45  and  _47
REMARK   22  A    between atoms: _47  and  _48
REMARK   23  A    between atoms: _51  and  _53
REMARK   24  A    between atoms: _53  and  _54
REMARK   25  A    between atoms: _53  and  _56
REMARK   26  A    between atoms: _56  and  _57
REMARK   27  A    between atoms: _67  and  _69
REMARK   28  A    between atoms: _69  and  _70
REMARK   29  A    between atoms: _69  and  _72
REMARK   30  A    between atoms: _72  and  _73
REMARK   31  A    between atoms: _73  and  _74
REMARK   32  A    between atoms: _74  and  _75
REMARK   33  A    between atoms: _75  and  _76
REMARK   34  A    between atoms: _80  and  _82
REMARK   35  A    between atoms: _82  and  _83
REMARK   36  A    between atoms: _82  and  _85
REMARK   37  A    between atoms: _85  and  _86
REMARK   38  A    between atoms: _88  and  _90
REMARK   39  A    between atoms: _90  and  _91
REMARK   40  A    between atoms: _90  and  _93
REMARK   41  A    between atoms: _93  and  _94
REMARK   42  A    between atoms: _94  and  _95
REMARK   43  A    between atoms: _98  and  _100
REMARK   44  A    between atoms: _100  and  _101
REMARK   45  A    between atoms: _100  and  _103
REMARK   46  A    between atoms: _103  and  _104
REMARK   47  A    between atoms: _104  and  _105
REMARK   48  A    between atoms: _110  and  _112
REMARK   49  A    between atoms: _112  and  _113
REMARK   50  A    between atoms: _112  and  _115
REMARK   51  A    between atoms: _118  and  _120
REMARK   52  A    between atoms: _120  and  _121
REMARK   53  A    between atoms: _120  and  _123
REMARK   54  A    between atoms: _123  and  _124
REMARK   55  A    between atoms: _129  and  _131
REMARK   56  A    between atoms: _131  and  _132
REMARK   57  A    between atoms: _135  and  _137
REMARK   58  A    between atoms: _137  and  _138
REMARK   59  A    between atoms: _137  and  _140
REMARK   60  A    between atoms: _140  and  _141
REMARK   61  A    between atoms: _143  and  _145
REMARK   62  A    between atoms: _145  and  _146
REMARK   63  A    between atoms: _149  and  _151
REMARK   64  A    between atoms: _151  and  _152
REMARK   65  A    between atoms: _151  and  _154
REMARK   66  A    between atoms: _154  and  _155
REMARK   67  A    between atoms: _165  and  _167
REMARK   68  A    between atoms: _167  and  _168
REMARK   69  A    between atoms: _167  and  _170
REMARK   70  A    between atoms: _170  and  _171
REMARK   71  A    between atoms: _174  and  _176
REMARK   72  A    between atoms: _176  and  _177
REMARK   73  A    between atoms: _176  and  _179
REMARK   74  A    between atoms: _179  and  _180
REMARK   75  A    between atoms: _186  and  _188
REMARK   76  A    between atoms: _188  and  _189
REMARK   77  A    between atoms: _188  and  _191
REMARK   78  A    between atoms: _191  and  _192
REMARK   79  A    between atoms: _197  and  _198
REMARK   80  A    between atoms: _200  and  _202
REMARK   81  A    between atoms: _202  and  _203
REMARK   82  A    between atoms: _202  and  _205
REMARK   83  A    between atoms: _205  and  _206
REMARK   84  A    between atoms: _209  and  _211
REMARK   85  A    between atoms: _211  and  _212
REMARK   86  A    between atoms: _211  and  _214
REMARK   87  A    between atoms: _217  and  _219
REMARK   88  A    between atoms: _219  and  _220
REMARK   89  A    between atoms: _219  and  _222
REMARK   90  A    between atoms: _222  and  _223
REMARK   91  A    between atoms: _223  and  _224
REMARK   92  A    between atoms: _224  and  _225
REMARK   93  A    between atoms: _234  and  _236
REMARK   94  A    between atoms: _236  and  _237
REMARK   95  A    between atoms: _236  and  _239
REMARK   96  A    between atoms: _239  and  _240
REMARK   97  A    between atoms: _243  and  _245
REMARK   98  A    between atoms: _245  and  _246
REMARK   99  A    between atoms: _245  and  _248
REMARK  100  A    between atoms: _248  and  _249
REMARK  101  A    between atoms: _249  and  _250
REMARK  102  A    between atoms: _250  and  _251
REMARK  103  A    between atoms: _251  and  _252
REMARK  104  A    between atoms: _256  and  _258
REMARK  105  A    between atoms: _258  and  _259
REMARK  106  A    between atoms: _258  and  _261
REMARK  107  A    between atoms: _261  and  _262
REMARK  108  A    between atoms: _262  and  _263
REMARK  109  A    between atoms: _268  and  _270
REMARK  110  A    between atoms: _270  and  _271
REMARK  111  A    between atoms: _270  and  _273
REMARK  112  A    between atoms: _273  and  _274
REMARK  113  A    between atoms: _277  and  _279
REMARK  114  A    between atoms: _290  and  _293
REMARK  115  A    between atoms: _293  and  _294
REMARK  116  A    between atoms: _294  and  _295
REMARK  117  A    between atoms: _300  and  _303
REMARK  118  A    between atoms: _303  and  _304
REMARK  119  A    between atoms: _314  and  _315
REMARK  120  A    between atoms: _323  and  _325
REMARK  121  A    between atoms: _325  and  _326
REMARK  122  A    between atoms: _325  and  _328
REMARK  123  A    between atoms: _328  and  _329
REMARK  124  A    between atoms: _332  and  _334
REMARK  125  A    between atoms: _334  and  _335
REMARK  126  A    between atoms: _334  and  _337
REMARK  127  A    between atoms: _337  and  _338
REMARK  128  A    between atoms: _343  and  _344
REMARK  129  A    between atoms: _346  and  _348
REMARK  130  A    between atoms: _348  and  _349
REMARK  131  A    between atoms: _348  and  _351
REMARK  132  A    between atoms: _351  and  _352
REMARK  133  A    between atoms: _358  and  _360
REMARK  134  A    between atoms: _360  and  _361
REMARK  135  A    between atoms: _360  and  _363
REMARK  136  A    between atoms: _363  and  _364
REMARK  137  A    between atoms: _369  and  _370
REMARK  138  A    between atoms: _372  and  _374
REMARK  139  A    between atoms: _374  and  _375
REMARK  140  A    between atoms: _374  and  _377
REMARK  141  A    between atoms: _377  and  _378
REMARK  142  A    between atoms: _384  and  _386
REMARK  143  A    between atoms: _386  and  _387
REMARK  144  A    between atoms: _386  and  _389
REMARK  145  A    between atoms: _389  and  _390
REMARK  146  A    between atoms: _390  and  _391
REMARK  147  A    between atoms: _391  and  _392
REMARK  148  A    between atoms: _401  and  _403
REMARK  149  A    between atoms: _403  and  _404
REMARK  150  A    between atoms: _403  and  _406
REMARK  151  A    between atoms: _406  and  _407
REMARK  152  A    between atoms: _410  and  _412
REMARK  153  A    between atoms: _412  and  _413
REMARK  154  A    between atoms: _415  and  _417
REMARK  155  A    between atoms: _417  and  _418
REMARK  156  A    between atoms: _421  and  _423
REMARK  157  A    between atoms: _423  and  _424
REMARK  158  A    between atoms: _423  and  _426
REMARK  159  A    between atoms: _426  and  _427
REMARK  160  A    between atoms: _433  and  _434
REMARK  161  A    between atoms: _439  and  _441
REMARK  162  A    between atoms: _441  and  _442
REMARK  163  A    between atoms: _444  and  _446
REMARK  164  A    between atoms: _446  and  _447
REMARK  165  A    between atoms: _446  and  _449
REMARK  166  A    between atoms: _449  and  _450
REMARK  167  A    between atoms: _456  and  _458
REMARK  168  A    between atoms: _458  and  _459
REMARK  169  A    between atoms: _458  and  _461
REMARK  170  A    between atoms: _461  and  _462
REMARK  171  A    between atoms: _467  and  _469
REMARK  172  A    between atoms: _469  and  _470
REMARK  173  A    between atoms: _469  and  _472
REMARK  174  A    between atoms: _472  and  _473
REMARK  175  A    between atoms: _473  and  _474
REMARK  176  A    between atoms: _474  and  _475
REMARK  177  A    between atoms: _475  and  ZN_601
REMARK  178  A    between atoms: _477  and  _479
REMARK  179  A    between atoms: _479  and  _480
REMARK  180  A    between atoms: _479  and  _482
REMARK  181  A    between atoms: _482  and  _483
REMARK  182  A    between atoms: _483  and  _484
REMARK  183  A    between atoms: _484  and  _485
REMARK  184  A    between atoms: _485  and  _486
REMARK  185  A    between atoms: _490  and  _492
REMARK  186  A    between atoms: _492  and  _493
REMARK  187  A    between atoms: _492  and  _495
REMARK  188  A    between atoms: _495  and  _496
REMARK  189  A    between atoms: _501  and  _502
REMARK  190  A    between atoms: _504  and  _506
REMARK  191  A    between atoms: _506  and  _507
REMARK  192  A    between atoms: _506  and  _509
REMARK  193  A    between atoms: _509  and  _510
REMARK  194  A    between atoms: _515  and  _517
REMARK  195  A    between atoms: _517  and  _518
REMARK  196  A    between atoms: _521  and  _523
REMARK  197  A    between atoms: _523  and  _524
REMARK  198  A    between atoms: _523  and  _526
REMARK  199  A    between atoms: _526  and  _527
REMARK  200  A    between atoms: _530  and  _532
REMARK  201  A    between atoms: _532  and  _533
REMARK  202  A    between atoms: _532  and  _535
REMARK  203  A    between atoms: _538  and  _540
REMARK  204  A    between atoms: _540  and  _541
REMARK  205  A    between atoms: _540  and  _543
REMARK  206  A    between atoms: _543  and  _544
REMARK  207  A    between atoms: _544  and  _545
REMARK  208  A    between atoms: _548  and  _550
REMARK  209  A    between atoms: _550  and  _551
REMARK  210  A    between atoms: _550  and  _553
REMARK  211  A    between atoms: _553  and  _554
REMARK  212  A    between atoms: _559  and  _560
REMARK  213  A    between atoms: _562  and  _564
REMARK  214  A    between atoms: _564  and  _565
REMARK  215  A    between atoms: _564  and  _567
REMARK  216  A    between atoms: _567  and  _568
REMARK  217  A    between atoms: _568  and  _569
REMARK  218  A    between atoms: _569  and  _570
REMARK  219  A    between atoms: _579  and  _581
REMARK  220  A    between atoms: _581  and  _582
REMARK  221  A    between atoms: _581  and  _584
REMARK  222  A    between atoms: _584  and  _585
REMARK  223  A    between atoms: _590  and  _591
REMARK  224  A    between atoms: _593  and  _595
REMARK  225  A    between atoms: _595  and  _596
REMARK  226  A    between atoms: _595  and  _598
REMARK  227  A    between atoms: _598  and  _599
REMARK                            x       y       z     vdW  Elec       q    Type
REMARK                         _______ _______ _______ _____ _____    ______ ____
ROOT
ATOM      1  O   HOH     1      -2.169  26.137 -16.642  0.00  0.00    +0.000 OA
ENDROOT
TORSDOF 0
REMARK  Name = ../refined-set-2016/2xhm/2xhm_pocket.pdb
REMARK  227 active torsions:
REMARK  status: ('A' for Active; 'I' for Inactive)
REMARK    1  A    between atoms: _1  and  _3
REMARK    2  A    between atoms: _3  and  _4
REMARK    3  A    between atoms: _3  and  _6
REMARK    4  A    between atoms: _6  and  _7
REMARK    5  A    between atoms: _10  and  _12
REMARK    6  A    between atoms: _12  and  _13
REMARK    7  A    between atoms: _12  and  _15
REMARK    8  A    between atoms: _15  and  _16
REMARK    9  A    between atoms: _16  and  _17
REMARK   10  A    between atoms: _20  and  _22
REMARK   11  A    between atoms: _22  and  _23
REMARK   12  A    between atoms: _22  and  _25
REMARK   13  A    between atoms: _25  and  _26
REMARK   14  A    between atoms: _29  and  _31
REMARK   15  A    between atoms: _31  and  _32
REMARK   16  A    between atoms: _31  and  _34
REMARK   17  A    between atoms: _34  and  _35
REMARK   18  A    between atoms: _35  and  _36
REMARK   19  A    between atoms: _39  and  _41
REMARK   20  A    between atoms: _41  and  _42
REMARK   21  A    between atoms: _45  and  _47
REMARK   22  A    between atoms: _47  and  _48
REMARK   23  A    between atoms: _51  and  _53
REMARK   24  A    between atoms: _53  and  _54
REMARK   25  A    between atoms: _53  and  _56
REMARK   26  A    between atoms: _56  and  _57
REMARK   27  A    between atoms: _67  and  _69
REMARK   28  A    between atoms: _69  and  _70
REMARK   29  A    between atoms: _69  and  _72
REMARK   30  A    between atoms: _72  and  _73
REMARK   31  A    between atoms: _73  and  _74
REMARK   32  A    between atoms: _74  and  _75
REMARK   33  A    between atoms: _75  and  _76
REMARK   34  A    between atoms: _80  and  _82
REMARK   35  A    between atoms: _82  and  _83
REMARK   36  A    between atoms: _82  and  _85
REMARK   37  A    between atoms: _85  and  _86
REMARK   38  A    between atoms: _88  and  _90
REMARK   39  A    between atoms: _90  and  _91
REMARK   40  A    between atoms: _90  and  _93
REMARK   41  A    between atoms: _93  and  _94
REMARK   42  A    between atoms: _94  and  _95
REMARK   43  A    between atoms: _98  and  _100
REMARK   44  A    between atoms: _100  and  _101
REMARK   45  A    between atoms: _100  and  _103
REMARK   46  A    between atoms: _103  and  _104
REMARK   47  A    between atoms: _104  and  _105
REMARK   48  A    between atoms: _110  and  _112
REMARK   49  A    between atoms: _112  and  _113
REMARK   50  A    between atoms: _112  and  _115
REMARK   51  A    between atoms: _118  and  _120
REMARK   52  A    between atoms: _120  and  _121
REMARK   53  A    between atoms: _120  and  _123
REMARK   54  A    between atoms: _123  and  _124
REMARK   55  A    between atoms: _129  and  _131
REMARK   56  A    between atoms: _131  and  _132
REMARK   57  A    between atoms: _135  and  _137
REMARK   58  A    between atoms: _137  and  _138
REMARK   59  A    between atoms: _137  and  _140
REMARK   60  A    between atoms: _140  and  _141
REMARK   61  A    between atoms: _143  and  _145
REMARK   62  A    between atoms: _145  and  _146
REMARK   63  A    between atoms: _149  and  _151
REMARK   64  A    between atoms: _151  and  _152
REMARK   65  A    between atoms: _151  and  _154
REMARK   66  A    between atoms: _154  and  _155
REMARK   67  A    between atoms: _165  and  _167
REMARK   68  A    between atoms: _167  and  _168
REMARK   69  A    between atoms: _167  and  _170
REMARK   70  A    between atoms: _170  and  _171
REMARK   71  A    between atoms: _174  and  _176
REMARK   72  A    between atoms: _176  and  _177
REMARK   73  A    between atoms: _176  and  _179
REMARK   74  A    between atoms: _179  and  _180
REMARK   75  A    between atoms: _186  and  _188
REMARK   76  A    between atoms: _188  and  _189
REMARK   77  A    between atoms: _188  and  _191
REMARK   78  A    between atoms: _191  and  _192
REMARK   79  A    between atoms: _197  and  _198
REMARK   80  A    between atoms: _200  and  _202
REMARK   81  A    between atoms: _202  and  _203
REMARK   82  A    between atoms: _202  and  _205
REMARK   83  A    between atoms: _205  and  _206
REMARK   84  A    between atoms: _209  and  _211
REMARK   85  A    between atoms: _211  and  _212
REMARK   86  A    between atoms: _211  and  _214
REMARK   87  A    between atoms: _217  and  _219
REMARK   88  A    between atoms: _219  and  _220
REMARK   89  A    between atoms: _219  and  _222
REMARK   90  A    between atoms: _222  and  _223
REMARK   91  A    between atoms: _223  and  _224
REMARK   92  A    between atoms: _224  and  _225
REMARK   93  A    between atoms: _234  and  _236
REMARK   94  A    between atoms: _236  and  _237
REMARK   95  A    between atoms: _236  and  _239
REMARK   96  A    between atoms: _239  and  _240
REMARK   97  A    between atoms: _243  and  _245
REMARK   98  A    between atoms: _245  and  _246
REMARK   99  A    between atoms: _245  and  _248
REMARK  100  A    between atoms: _248  and  _249
REMARK  101  A    between atoms: _249  and  _250
REMARK  102  A    between atoms: _250  and  _251
REMARK  103  A    between atoms: _251  and  _252
REMARK  104  A    between atoms: _256  and  _258
REMARK  105  A    between atoms: _258  and  _259
REMARK  106  A    between atoms: _258  and  _261
REMARK  107  A    between atoms: _261  and  _262
REMARK  108  A    between atoms: _262  and  _263
REMARK  109  A    between atoms: _268  and  _270
REMARK  110  A    between atoms: _270  and  _271
REMARK  111  A    between atoms: _270  and  _273
REMARK  112  A    between atoms: _273  and  _274
REMARK  113  A    between atoms: _277  and  _279
REMARK  114  A    between atoms: _290  and  _293
REMARK  115  A    between atoms: _293  and  _294
REMARK  116  A    between atoms: _294  and  _295
REMARK  117  A    between atoms: _300  and  _303
REMARK  118  A    between atoms: _303  and  _304
REMARK  119  A    between atoms: _314  and  _315
REMARK  120  A    between atoms: _323  and  _325
REMARK  121  A    between atoms: _325  and  _326
REMARK  122  A    between atoms: _325  and  _328
REMARK  123  A    between atoms: _328  and  _329
REMARK  124  A    between atoms: _332  and  _334
REMARK  125  A    between atoms: _334  and  _335
REMARK  126  A    between atoms: _334  and  _337
REMARK  127  A    between atoms: _337  and  _338
REMARK  128  A    between atoms: _343  and  _344
REMARK  129  A    between atoms: _346  and  _348
REMARK  130  A    between atoms: _348  and  _349
REMARK  131  A    between atoms: _348  and  _351
REMARK  132  A    between atoms: _351  and  _352
REMARK  133  A    between atoms: _358  and  _360
REMARK  134  A    between atoms: _360  and  _361
REMARK  135  A    between atoms: _360  and  _363
REMARK  136  A    between atoms: _363  and  _364
REMARK  137  A    between atoms: _369  and  _370
REMARK  138  A    between atoms: _372  and  _374
REMARK  139  A    between atoms: _374  and  _375
REMARK  140  A    between atoms: _374  and  _377
REMARK  141  A    between atoms: _377  and  _378
REMARK  142  A    between atoms: _384  and  _386
REMARK  143  A    between atoms: _386  and  _387
REMARK  144  A    between atoms: _386  and  _389
REMARK  145  A    between atoms: _389  and  _390
REMARK  146  A    between atoms: _390  and  _391
REMARK  147  A    between atoms: _391  and  _392
REMARK  148  A    between atoms: _401  and  _403
REMARK  149  A    between atoms: _403  and  _404
REMARK  150  A    between atoms: _403  and  _406
REMARK  151  A    between atoms: _406  and  _407
REMARK  152  A    between atoms: _410  and  _412
REMARK  153  A    between atoms: _412  and  _413
REMARK  154  A    between atoms: _415  and  _417
REMARK  155  A    between atoms: _417  and  _418
REMARK  156  A    between atoms: _421  and  _423
REMARK  157  A    between atoms: _423  and  _424
REMARK  158  A    between atoms: _423  and  _426
REMARK  159  A    between atoms: _426  and  _427
REMARK  160  A    between atoms: _433  and  _434
REMARK  161  A    between atoms: _439  and  _441
REMARK  162  A    between atoms: _441  and  _442
REMARK  163  A    between atoms: _444  and  _446
REMARK  164  A    between atoms: _446  and  _447
REMARK  165  A    between atoms: _446  and  _449
REMARK  166  A    between atoms: _449  and  _450
REMARK  167  A    between atoms: _456  and  _458
REMARK  168  A    between atoms: _458  and  _459
REMARK  169  A    between atoms: _458  and  _461
REMARK  170  A    between atoms: _461  and  _462
REMARK  171  A    between atoms: _467  and  _469
REMARK  172  A    between atoms: _469  and  _470
REMARK  173  A    between atoms: _469  and  _472
REMARK  174  A    between atoms: _472  and  _473
REMARK  175  A    between atoms: _473  and  _474
REMARK  176  A    between atoms: _474  and  _475
REMARK  177  A    between atoms: _475  and  ZN_601
REMARK  178  A    between atoms: _477  and  _479
REMARK  179  A    between atoms: _479  and  _480
REMARK  180  A    between atoms: _479  and  _482
REMARK  181  A    between atoms: _482  and  _483
REMARK  182  A    between atoms: _483  and  _484
REMARK  183  A    between atoms: _484  and  _485
REMARK  184  A    between atoms: _485  and  _486
REMARK  185  A    between atoms: _490  and  _492
REMARK  186  A    between atoms: _492  and  _493
REMARK  187  A    between atoms: _492  and  _495
REMARK  188  A    between atoms: _495  and  _496
REMARK  189  A    between atoms: _501  and  _502
REMARK  190  A    between atoms: _504  and  _506
REMARK  191  A    between atoms: _506  and  _507
REMARK  192  A    between atoms: _506  and  _509
REMARK  193  A    between atoms: _509  and  _510
REMARK  194  A    between atoms: _515  and  _517
REMARK  195  A    between atoms: _517  and  _518
REMARK  196  A    between atoms: _521  and  _523
REMARK  197  A    between atoms: _523  and  _524
REMARK  198  A    between atoms: _523  and  _526
REMARK  199  A    between atoms: _526  and  _527
REMARK  200  A    between atoms: _530  and  _532
REMARK  201  A    between atoms: _532  and  _533
REMARK  202  A    between atoms: _532  and  _535
REMARK  203  A    between atoms: _538  and  _540
REMARK  204  A    between atoms: _540  and  _541
REMARK  205  A    between atoms: _540  and  _543
REMARK  206  A    between atoms: _543  and  _544
REMARK  207  A    between atoms: _544  and  _545
REMARK  208  A    between atoms: _548  and  _550
REMARK  209  A    between atoms: _550  and  _551
REMARK  210  A    between atoms: _550  and  _553
REMARK  211  A    between atoms: _553  and  _554
REMARK  212  A    between atoms: _559  and  _560
REMARK  213  A    between atoms: _562  and  _564
REMARK  214  A    between atoms: _564  and  _565
REMARK  215  A    between atoms: _564  and  _567
REMARK  216  A    between atoms: _567  and  _568
REMARK  217  A    between atoms: _568  and  _569
REMARK  218  A    between atoms: _569  and  _570
REMARK  219  A    between atoms: _579  and  _581
REMARK  220  A    between atoms: _581  and  _582
REMARK  221  A    between atoms: _581  and  _584
REMARK  222  A    between atoms: _584  and  _585
REMARK  223  A    between atoms: _590  and  _591
REMARK  224  A    between atoms: _593  and  _595
REMARK  225  A    between atoms: _595  and  _596
REMARK  226  A    between atoms: _595  and  _598
REMARK  227  A    between atoms: _598  and  _599
REMARK                            x       y       z     vdW  Elec       q    Type
REMARK                         _______ _______ _______ _____ _____    ______ ____
ROOT
ATOM      1  O   HOH     1      -7.532  22.971  -4.487  0.00  0.00    +0.000 OA
ENDROOT
TORSDOF 0
REMARK  Name = ../refined-set-2016/2xhm/2xhm_pocket.pdb
REMARK  227 active torsions:
REMARK  status: ('A' for Active; 'I' for Inactive)
REMARK    1  A    between atoms: _1  and  _3
REMARK    2  A    between atoms: _3  and  _4
REMARK    3  A    between atoms: _3  and  _6
REMARK    4  A    between atoms: _6  and  _7
REMARK    5  A    between atoms: _10  and  _12
REMARK    6  A    between atoms: _12  and  _13
REMARK    7  A    between atoms: _12  and  _15
REMARK    8  A    between atoms: _15  and  _16
REMARK    9  A    between atoms: _16  and  _17
REMARK   10  A    between atoms: _20  and  _22
REMARK   11  A    between atoms: _22  and  _23
REMARK   12  A    between atoms: _22  and  _25
REMARK   13  A    between atoms: _25  and  _26
REMARK   14  A    between atoms: _29  and  _31
REMARK   15  A    between atoms: _31  and  _32
REMARK   16  A    between atoms: _31  and  _34
REMARK   17  A    between atoms: _34  and  _35
REMARK   18  A    between atoms: _35  and  _36
REMARK   19  A    between atoms: _39  and  _41
REMARK   20  A    between atoms: _41  and  _42
REMARK   21  A    between atoms: _45  and  _47
REMARK   22  A    between atoms: _47  and  _48
REMARK   23  A    between atoms: _51  and  _53
REMARK   24  A    between atoms: _53  and  _54
REMARK   25  A    between atoms: _53  and  _56
REMARK   26  A    between atoms: _56  and  _57
REMARK   27  A    between atoms: _67  and  _69
REMARK   28  A    between atoms: _69  and  _70
REMARK   29  A    between atoms: _69  and  _72
REMARK   30  A    between atoms: _72  and  _73
REMARK   31  A    between atoms: _73  and  _74
REMARK   32  A    between atoms: _74  and  _75
REMARK   33  A    between atoms: _75  and  _76
REMARK   34  A    between atoms: _80  and  _82
REMARK   35  A    between atoms: _82  and  _83
REMARK   36  A    between atoms: _82  and  _85
REMARK   37  A    between atoms: _85  and  _86
REMARK   38  A    between atoms: _88  and  _90
REMARK   39  A    between atoms: _90  and  _91
REMARK   40  A    between atoms: _90  and  _93
REMARK   41  A    between atoms: _93  and  _94
REMARK   42  A    between atoms: _94  and  _95
REMARK   43  A    between atoms: _98  and  _100
REMARK   44  A    between atoms: _100  and  _101
REMARK   45  A    between atoms: _100  and  _103
REMARK   46  A    between atoms: _103  and  _104
REMARK   47  A    between atoms: _104  and  _105
REMARK   48  A    between atoms: _110  and  _112
REMARK   49  A    between atoms: _112  and  _113
REMARK   50  A    between atoms: _112  and  _115
REMARK   51  A    between atoms: _118  and  _120
REMARK   52  A    between atoms: _120  and  _121
REMARK   53  A    between atoms: _120  and  _123
REMARK   54  A    between atoms: _123  and  _124
REMARK   55  A    between atoms: _129  and  _131
REMARK   56  A    between atoms: _131  and  _132
REMARK   57  A    between atoms: _135  and  _137
REMARK   58  A    between atoms: _137  and  _138
REMARK   59  A    between atoms: _137  and  _140
REMARK   60  A    between atoms: _140  and  _141
REMARK   61  A    between atoms: _143  and  _145
REMARK   62  A    between atoms: _145  and  _146
REMARK   63  A    between atoms: _149  and  _151
REMARK   64  A    between atoms: _151  and  _152
REMARK   65  A    between atoms: _151  and  _154
REMARK   66  A    between atoms: _154  and  _155
REMARK   67  A    between atoms: _165  and  _167
REMARK   68  A    between atoms: _167  and  _168
REMARK   69  A    between atoms: _167  and  _170
REMARK   70  A    between atoms: _170  and  _171
REMARK   71  A    between atoms: _174  and  _176
REMARK   72  A    between atoms: _176  and  _177
REMARK   73  A    between atoms: _176  and  _179
REMARK   74  A    between atoms: _179  and  _180
REMARK   75  A    between atoms: _186  and  _188
REMARK   76  A    between atoms: _188  and  _189
REMARK   77  A    between atoms: _188  and  _191
REMARK   78  A    between atoms: _191  and  _192
REMARK   79  A    between atoms: _197  and  _198
REMARK   80  A    between atoms: _200  and  _202
REMARK   81  A    between atoms: _202  and  _203
REMARK   82  A    between atoms: _202  and  _205
REMARK   83  A    between atoms: _205  and  _206
REMARK   84  A    between atoms: _209  and  _211
REMARK   85  A    between atoms: _211  and  _212
REMARK   86  A    between atoms: _211  and  _214
REMARK   87  A    between atoms: _217  and  _219
REMARK   88  A    between atoms: _219  and  _220
REMARK   89  A    between atoms: _219  and  _222
REMARK   90  A    between atoms: _222  and  _223
REMARK   91  A    between atoms: _223  and  _224
REMARK   92  A    between atoms: _224  and  _225
REMARK   93  A    between atoms: _234  and  _236
REMARK   94  A    between atoms: _236  and  _237
REMARK   95  A    between atoms: _236  and  _239
REMARK   96  A    between atoms: _239  and  _240
REMARK   97  A    between atoms: _243  and  _245
REMARK   98  A    between atoms: _245  and  _246
REMARK   99  A    between atoms: _245  and  _248
REMARK  100  A    between atoms: _248  and  _249
REMARK  101  A    between atoms: _249  and  _250
REMARK  102  A    between atoms: _250  and  _251
REMARK  103  A    between atoms: _251  and  _252
REMARK  104  A    between atoms: _256  and  _258
REMARK  105  A    between atoms: _258  and  _259
REMARK  106  A    between atoms: _258  and  _261
REMARK  107  A    between atoms: _261  and  _262
REMARK  108  A    between atoms: _262  and  _263
REMARK  109  A    between atoms: _268  and  _270
REMARK  110  A    between atoms: _270  and  _271
REMARK  111  A    between atoms: _270  and  _273
REMARK  112  A    between atoms: _273  and  _274
REMARK  113  A    between atoms: _277  and  _279
REMARK  114  A    between atoms: _290  and  _293
REMARK  115  A    between atoms: _293  and  _294
REMARK  116  A    between atoms: _294  and  _295
REMARK  117  A    between atoms: _300  and  _303
REMARK  118  A    between atoms: _303  and  _304
REMARK  119  A    between atoms: _314  and  _315
REMARK  120  A    between atoms: _323  and  _325
REMARK  121  A    between atoms: _325  and  _326
REMARK  122  A    between atoms: _325  and  _328
REMARK  123  A    between atoms: _328  and  _329
REMARK  124  A    between atoms: _332  and  _334
REMARK  125  A    between atoms: _334  and  _335
REMARK  126  A    between atoms: _334  and  _337
REMARK  127  A    between atoms: _337  and  _338
REMARK  128  A    between atoms: _343  and  _344
REMARK  129  A    between atoms: _346  and  _348
REMARK  130  A    between atoms: _348  and  _349
REMARK  131  A    between atoms: _348  and  _351
REMARK  132  A    between atoms: _351  and  _352
REMARK  133  A    between atoms: _358  and  _360
REMARK  134  A    between atoms: _360  and  _361
REMARK  135  A    between atoms: _360  and  _363
REMARK  136  A    between atoms: _363  and  _364
REMARK  137  A    between atoms: _369  and  _370
REMARK  138  A    between atoms: _372  and  _374
REMARK  139  A    between atoms: _374  and  _375
REMARK  140  A    between atoms: _374  and  _377
REMARK  141  A    between atoms: _377  and  _378
REMARK  142  A    between atoms: _384  and  _386
REMARK  143  A    between atoms: _386  and  _387
REMARK  144  A    between atoms: _386  and  _389
REMARK  145  A    between atoms: _389  and  _390
REMARK  146  A    between atoms: _390  and  _391
REMARK  147  A    between atoms: _391  and  _392
REMARK  148  A    between atoms: _401  and  _403
REMARK  149  A    between atoms: _403  and  _404
REMARK  150  A    between atoms: _403  and  _406
REMARK  151  A    between atoms: _406  and  _407
REMARK  152  A    between atoms: _410  and  _412
REMARK  153  A    between atoms: _412  and  _413
REMARK  154  A    between atoms: _415  and  _417
REMARK  155  A    between atoms: _417  and  _418
REMARK  156  A    between atoms: _421  and  _423
REMARK  157  A    between atoms: _423  and  _424
REMARK  158  A    between atoms: _423  and  _426
REMARK  159  A    between atoms: _426  and  _427
REMARK  160  A    between atoms: _433  and  _434
REMARK  161  A    between atoms: _439  and  _441
REMARK  162  A    between atoms: _441  and  _442
REMARK  163  A    between atoms: _444  and  _446
REMARK  164  A    between atoms: _446  and  _447
REMARK  165  A    between atoms: _446  and  _449
REMARK  166  A    between atoms: _449  and  _450
REMARK  167  A    between atoms: _456  and  _458
REMARK  168  A    between atoms: _458  and  _459
REMARK  169  A    between atoms: _458  and  _461
REMARK  170  A    between atoms: _461  and  _462
REMARK  171  A    between atoms: _467  and  _469
REMARK  172  A    between atoms: _469  and  _470
REMARK  173  A    between atoms: _469  and  _472
REMARK  174  A    between atoms: _472  and  _473
REMARK  175  A    between atoms: _473  and  _474
REMARK  176  A    between atoms: _474  and  _475
REMARK  177  A    between atoms: _475  and  ZN_601
REMARK  178  A    between atoms: _477  and  _479
REMARK  179  A    between atoms: _479  and  _480
REMARK  180  A    between atoms: _479  and  _482
REMARK  181  A    between atoms: _482  and  _483
REMARK  182  A    between atoms: _483  and  _484
REMARK  183  A    between atoms: _484  and  _485
REMARK  184  A    between atoms: _485  and  _486
REMARK  185  A    between atoms: _490  and  _492
REMARK  186  A    between atoms: _492  and  _493
REMARK  187  A    between atoms: _492  and  _495
REMARK  188  A    between atoms: _495  and  _496
REMARK  189  A    between atoms: _501  and  _502
REMARK  190  A    between atoms: _504  and  _506
REMARK  191  A    between atoms: _506  and  _507
REMARK  192  A    between atoms: _506  and  _509
REMARK  193  A    between atoms: _509  and  _510
REMARK  194  A    between atoms: _515  and  _517
REMARK  195  A    between atoms: _517  and  _518
REMARK  196  A    between atoms: _521  and  _523
REMARK  197  A    between atoms: _523  and  _524
REMARK  198  A    between atoms: _523  and  _526
REMARK  199  A    between atoms: _526  and  _527
REMARK  200  A    between atoms: _530  and  _532
REMARK  201  A    between atoms: _532  and  _533
REMARK  202  A    between atoms: _532  and  _535
REMARK  203  A    between atoms: _538  and  _540
REMARK  204  A    between atoms: _540  and  _541
REMARK  205  A    between atoms: _540  and  _543
REMARK  206  A    between atoms: _543  and  _544
REMARK  207  A    between atoms: _544  and  _545
REMARK  208  A    between atoms: _548  and  _550
REMARK  209  A    between atoms: _550  and  _551
REMARK  210  A    between atoms: _550  and  _553
REMARK  211  A    between atoms: _553  and  _554
REMARK  212  A    between atoms: _559  and  _560
REMARK  213  A    between atoms: _562  and  _564
REMARK  214  A    between atoms: _564  and  _565
REMARK  215  A    between atoms: _564  and  _567
REMARK  216  A    between atoms: _567  and  _568
REMARK  217  A    between atoms: _568  and  _569
REMARK  218  A    between atoms: _569  and  _570
REMARK  219  A    between atoms: _579  and  _581
REMARK  220  A    between atoms: _581  and  _582
REMARK  221  A    between atoms: _581  and  _584
REMARK  222  A    between atoms: _584  and  _585
REMARK  223  A    between atoms: _590  and  _591
REMARK  224  A    between atoms: _593  and  _595
REMARK  225  A    between atoms: _595  and  _596
REMARK  226  A    between atoms: _595  and  _598
REMARK  227  A    between atoms: _598  and  _599
REMARK                            x       y       z     vdW  Elec       q    Type
REMARK                         _______ _______ _______ _____ _____    ______ ____
ROOT
ATOM      1  O   HOH     1     -17.450  17.755  -3.812  0.00  0.00    +0.000 OA
ENDROOT
TORSDOF 0
REMARK  Name = ../refined-set-2016/2xhm/2xhm_pocket.pdb
REMARK  227 active torsions:
REMARK  status: ('A' for Active; 'I' for Inactive)
REMARK    1  A    between atoms: _1  and  _3
REMARK    2  A    between atoms: _3  and  _4
REMARK    3  A    between atoms: _3  and  _6
REMARK    4  A    between atoms: _6  and  _7
REMARK    5  A    between atoms: _10  and  _12
REMARK    6  A    between atoms: _12  and  _13
REMARK    7  A    between atoms: _12  and  _15
REMARK    8  A    between atoms: _15  and  _16
REMARK    9  A    between atoms: _16  and  _17
REMARK   10  A    between atoms: _20  and  _22
REMARK   11  A    between atoms: _22  and  _23
REMARK   12  A    between atoms: _22  and  _25
REMARK   13  A    between atoms: _25  and  _26
REMARK   14  A    between atoms: _29  and  _31
REMARK   15  A    between atoms: _31  and  _32
REMARK   16  A    between atoms: _31  and  _34
REMARK   17  A    between atoms: _34  and  _35
REMARK   18  A    between atoms: _35  and  _36
REMARK   19  A    between atoms: _39  and  _41
REMARK   20  A    between atoms: _41  and  _42
REMARK   21  A    between atoms: _45  and  _47
REMARK   22  A    between atoms: _47  and  _48
REMARK   23  A    between atoms: _51  and  _53
REMARK   24  A    between atoms: _53  and  _54
REMARK   25  A    between atoms: _53  and  _56
REMARK   26  A    between atoms: _56  and  _57
REMARK   27  A    between atoms: _67  and  _69
REMARK   28  A    between atoms: _69  and  _70
REMARK   29  A    between atoms: _69  and  _72
REMARK   30  A    between atoms: _72  and  _73
REMARK   31  A    between atoms: _73  and  _74
REMARK   32  A    between atoms: _74  and  _75
REMARK   33  A    between atoms: _75  and  _76
REMARK   34  A    between atoms: _80  and  _82
REMARK   35  A    between atoms: _82  and  _83
REMARK   36  A    between atoms: _82  and  _85
REMARK   37  A    between atoms: _85  and  _86
REMARK   38  A    between atoms: _88  and  _90
REMARK   39  A    between atoms: _90  and  _91
REMARK   40  A    between atoms: _90  and  _93
REMARK   41  A    between atoms: _93  and  _94
REMARK   42  A    between atoms: _94  and  _95
REMARK   43  A    between atoms: _98  and  _100
REMARK   44  A    between atoms: _100  and  _101
REMARK   45  A    between atoms: _100  and  _103
REMARK   46  A    between atoms: _103  and  _104
REMARK   47  A    between atoms: _104  and  _105
REMARK   48  A    between atoms: _110  and  _112
REMARK   49  A    between atoms: _112  and  _113
REMARK   50  A    between atoms: _112  and  _115
REMARK   51  A    between atoms: _118  and  _120
REMARK   52  A    between atoms: _120  and  _121
REMARK   53  A    between atoms: _120  and  _123
REMARK   54  A    between atoms: _123  and  _124
REMARK   55  A    between atoms: _129  and  _131
REMARK   56  A    between atoms: _131  and  _132
REMARK   57  A    between atoms: _135  and  _137
REMARK   58  A    between atoms: _137  and  _138
REMARK   59  A    between atoms: _137  and  _140
REMARK   60  A    between atoms: _140  and  _141
REMARK   61  A    between atoms: _143  and  _145
REMARK   62  A    between atoms: _145  and  _146
REMARK   63  A    between atoms: _149  and  _151
REMARK   64  A    between atoms: _151  and  _152
REMARK   65  A    between atoms: _151  and  _154
REMARK   66  A    between atoms: _154  and  _155
REMARK   67  A    between atoms: _165  and  _167
REMARK   68  A    between atoms: _167  and  _168
REMARK   69  A    between atoms: _167  and  _170
REMARK   70  A    between atoms: _170  and  _171
REMARK   71  A    between atoms: _174  and  _176
REMARK   72  A    between atoms: _176  and  _177
REMARK   73  A    between atoms: _176  and  _179
REMARK   74  A    between atoms: _179  and  _180
REMARK   75  A    between atoms: _186  and  _188
REMARK   76  A    between atoms: _188  and  _189
REMARK   77  A    between atoms: _188  and  _191
REMARK   78  A    between atoms: _191  and  _192
REMARK   79  A    between atoms: _197  and  _198
REMARK   80  A    between atoms: _200  and  _202
REMARK   81  A    between atoms: _202  and  _203
REMARK   82  A    between atoms: _202  and  _205
REMARK   83  A    between atoms: _205  and  _206
REMARK   84  A    between atoms: _209  and  _211
REMARK   85  A    between atoms: _211  and  _212
REMARK   86  A    between atoms: _211  and  _214
REMARK   87  A    between atoms: _217  and  _219
REMARK   88  A    between atoms: _219  and  _220
REMARK   89  A    between atoms: _219  and  _222
REMARK   90  A    between atoms: _222  and  _223
REMARK   91  A    between atoms: _223  and  _224
REMARK   92  A    between atoms: _224  and  _225
REMARK   93  A    between atoms: _234  and  _236
REMARK   94  A    between atoms: _236  and  _237
REMARK   95  A    between atoms: _236  and  _239
REMARK   96  A    between atoms: _239  and  _240
REMARK   97  A    between atoms: _243  and  _245
REMARK   98  A    between atoms: _245  and  _246
REMARK   99  A    between atoms: _245  and  _248
REMARK  100  A    between atoms: _248  and  _249
REMARK  101  A    between atoms: _249  and  _250
REMARK  102  A    between atoms: _250  and  _251
REMARK  103  A    between atoms: _251  and  _252
REMARK  104  A    between atoms: _256  and  _258
REMARK  105  A    between atoms: _258  and  _259
REMARK  106  A    between atoms: _258  and  _261
REMARK  107  A    between atoms: _261  and  _262
REMARK  108  A    between atoms: _262  and  _263
REMARK  109  A    between atoms: _268  and  _270
REMARK  110  A    between atoms: _270  and  _271
REMARK  111  A    between atoms: _270  and  _273
REMARK  112  A    between atoms: _273  and  _274
REMARK  113  A    between atoms: _277  and  _279
REMARK  114  A    between atoms: _290  and  _293
REMARK  115  A    between atoms: _293  and  _294
REMARK  116  A    between atoms: _294  and  _295
REMARK  117  A    between atoms: _300  and  _303
REMARK  118  A    between atoms: _303  and  _304
REMARK  119  A    between atoms: _314  and  _315
REMARK  120  A    between atoms: _323  and  _325
REMARK  121  A    between atoms: _325  and  _326
REMARK  122  A    between atoms: _325  and  _328
REMARK  123  A    between atoms: _328  and  _329
REMARK  124  A    between atoms: _332  and  _334
REMARK  125  A    between atoms: _334  and  _335
REMARK  126  A    between atoms: _334  and  _337
REMARK  127  A    between atoms: _337  and  _338
REMARK  128  A    between atoms: _343  and  _344
REMARK  129  A    between atoms: _346  and  _348
REMARK  130  A    between atoms: _348  and  _349
REMARK  131  A    between atoms: _348  and  _351
REMARK  132  A    between atoms: _351  and  _352
REMARK  133  A    between atoms: _358  and  _360
REMARK  134  A    between atoms: _360  and  _361
REMARK  135  A    between atoms: _360  and  _363
REMARK  136  A    between atoms: _363  and  _364
REMARK  137  A    between atoms: _369  and  _370
REMARK  138  A    between atoms: _372  and  _374
REMARK  139  A    between atoms: _374  and  _375
REMARK  140  A    between atoms: _374  and  _377
REMARK  141  A    between atoms: _377  and  _378
REMARK  142  A    between atoms: _384  and  _386
REMARK  143  A    between atoms: _386  and  _387
REMARK  144  A    between atoms: _386  and  _389
REMARK  145  A    between atoms: _389  and  _390
REMARK  146  A    between atoms: _390  and  _391
REMARK  147  A    between atoms: _391  and  _392
REMARK  148  A    between atoms: _401  and  _403
REMARK  149  A    between atoms: _403  and  _404
REMARK  150  A    between atoms: _403  and  _406
REMARK  151  A    between atoms: _406  and  _407
REMARK  152  A    between atoms: _410  and  _412
REMARK  153  A    between atoms: _412  and  _413
REMARK  154  A    between atoms: _415  and  _417
REMARK  155  A    between atoms: _417  and  _418
REMARK  156  A    between atoms: _421  and  _423
REMARK  157  A    between atoms: _423  and  _424
REMARK  158  A    between atoms: _423  and  _426
REMARK  159  A    between atoms: _426  and  _427
REMARK  160  A    between atoms: _433  and  _434
REMARK  161  A    between atoms: _439  and  _441
REMARK  162  A    between atoms: _441  and  _442
REMARK  163  A    between atoms: _444  and  _446
REMARK  164  A    between atoms: _446  and  _447
REMARK  165  A    between atoms: _446  and  _449
REMARK  166  A    between atoms: _449  and  _450
REMARK  167  A    between atoms: _456  and  _458
REMARK  168  A    between atoms: _458  and  _459
REMARK  169  A    between atoms: _458  and  _461
REMARK  170  A    between atoms: _461  and  _462
REMARK  171  A    between atoms: _467  and  _469
REMARK  172  A    between atoms: _469  and  _470
REMARK  173  A    between atoms: _469  and  _472
REMARK  174  A    between atoms: _472  and  _473
REMARK  175  A    between atoms: _473  and  _474
REMARK  176  A    between atoms: _474  and  _475
REMARK  177  A    between atoms: _475  and  ZN_601
REMARK  178  A    between atoms: _477  and  _479
REMARK  179  A    between atoms: _479  and  _480
REMARK  180  A    between atoms: _479  and  _482
REMARK  181  A    between atoms: _482  and  _483
REMARK  182  A    between atoms: _483  and  _484
REMARK  183  A    between atoms: _484  and  _485
REMARK  184  A    between atoms: _485  and  _486
REMARK  185  A    between atoms: _490  and  _492
REMARK  186  A    between atoms: _492  and  _493
REMARK  187  A    between atoms: _492  and  _495
REMARK  188  A    between atoms: _495  and  _496
REMARK  189  A    between atoms: _501  and  _502
REMARK  190  A    between atoms: _504  and  _506
REMARK  191  A    between atoms: _506  and  _507
REMARK  192  A    between atoms: _506  and  _509
REMARK  193  A    between atoms: _509  and  _510
REMARK  194  A    between atoms: _515  and  _517
REMARK  195  A    between atoms: _517  and  _518
REMARK  196  A    between atoms: _521  and  _523
REMARK  197  A    between atoms: _523  and  _524
REMARK  198  A    between atoms: _523  and  _526
REMARK  199  A    between atoms: _526  and  _527
REMARK  200  A    between atoms: _530  and  _532
REMARK  201  A    between atoms: _532  and  _533
REMARK  202  A    between atoms: _532  and  _535
REMARK  203  A    between atoms: _538  and  _540
REMARK  204  A    between atoms: _540  and  _541
REMARK  205  A    between atoms: _540  and  _543
REMARK  206  A    between atoms: _543  and  _544
REMARK  207  A    between atoms: _544  and  _545
REMARK  208  A    between atoms: _548  and  _550
REMARK  209  A    between atoms: _550  and  _551
REMARK  210  A    between atoms: _550  and  _553
REMARK  211  A    between atoms: _553  and  _554
REMARK  212  A    between atoms: _559  and  _560
REMARK  213  A    between atoms: _562  and  _564
REMARK  214  A    between atoms: _564  and  _565
REMARK  215  A    between atoms: _564  and  _567
REMARK  216  A    between atoms: _567  and  _568
REMARK  217  A    between atoms: _568  and  _569
REMARK  218  A    between atoms: _569  and  _570
REMARK  219  A    between atoms: _579  and  _581
REMARK  220  A    between atoms: _581  and  _582
REMARK  221  A    between atoms: _581  and  _584
REMARK  222  A    between atoms: _584  and  _585
REMARK  223  A    between atoms: _590  and  _591
REMARK  224  A    between atoms: _593  and  _595
REMARK  225  A    between atoms: _595  and  _596
REMARK  226  A    between atoms: _595  and  _598
REMARK  227  A    between atoms: _598  and  _599
REMARK                            x       y       z     vdW  Elec       q    Type
REMARK                         _______ _______ _______ _____ _____    ______ ____
ROOT
ATOM      1  O   HOH     1     -15.671  18.237 -17.370  0.00  0.00    +0.000 OA
ENDROOT
TORSDOF 0
REMARK  Name = ../refined-set-2016/2xhm/2xhm_pocket.pdb
REMARK  227 active torsions:
REMARK  status: ('A' for Active; 'I' for Inactive)
REMARK    1  A    between atoms: _1  and  _3
REMARK    2  A    between atoms: _3  and  _4
REMARK    3  A    between atoms: _3  and  _6
REMARK    4  A    between atoms: _6  and  _7
REMARK    5  A    between atoms: _10  and  _12
REMARK    6  A    between atoms: _12  and  _13
REMARK    7  A    between atoms: _12  and  _15
REMARK    8  A    between atoms: _15  and  _16
REMARK    9  A    between atoms: _16  and  _17
REMARK   10  A    between atoms: _20  and  _22
REMARK   11  A    between atoms: _22  and  _23
REMARK   12  A    between atoms: _22  and  _25
REMARK   13  A    between atoms: _25  and  _26
REMARK   14  A    between atoms: _29  and  _31
REMARK   15  A    between atoms: _31  and  _32
REMARK   16  A    between atoms: _31  and  _34
REMARK   17  A    between atoms: _34  and  _35
REMARK   18  A    between atoms: _35  and  _36
REMARK   19  A    between atoms: _39  and  _41
REMARK   20  A    between atoms: _41  and  _42
REMARK   21  A    between atoms: _45  and  _47
REMARK   22  A    between atoms: _47  and  _48
REMARK   23  A    between atoms: _51  and  _53
REMARK   24  A    between atoms: _53  and  _54
REMARK   25  A    between atoms: _53  and  _56
REMARK   26  A    between atoms: _56  and  _57
REMARK   27  A    between atoms: _67  and  _69
REMARK   28  A    between atoms: _69  and  _70
REMARK   29  A    between atoms: _69  and  _72
REMARK   30  A    between atoms: _72  and  _73
REMARK   31  A    between atoms: _73  and  _74
REMARK   32  A    between atoms: _74  and  _75
REMARK   33  A    between atoms: _75  and  _76
REMARK   34  A    between atoms: _80  and  _82
REMARK   35  A    between atoms: _82  and  _83
REMARK   36  A    between atoms: _82  and  _85
REMARK   37  A    between atoms: _85  and  _86
REMARK   38  A    between atoms: _88  and  _90
REMARK   39  A    between atoms: _90  and  _91
REMARK   40  A    between atoms: _90  and  _93
REMARK   41  A    between atoms: _93  and  _94
REMARK   42  A    between atoms: _94  and  _95
REMARK   43  A    between atoms: _98  and  _100
REMARK   44  A    between atoms: _100  and  _101
REMARK   45  A    between atoms: _100  and  _103
REMARK   46  A    between atoms: _103  and  _104
REMARK   47  A    between atoms: _104  and  _105
REMARK   48  A    between atoms: _110  and  _112
REMARK   49  A    between atoms: _112  and  _113
REMARK   50  A    between atoms: _112  and  _115
REMARK   51  A    between atoms: _118  and  _120
REMARK   52  A    between atoms: _120  and  _121
REMARK   53  A    between atoms: _120  and  _123
REMARK   54  A    between atoms: _123  and  _124
REMARK   55  A    between atoms: _129  and  _131
REMARK   56  A    between atoms: _131  and  _132
REMARK   57  A    between atoms: _135  and  _137
REMARK   58  A    between atoms: _137  and  _138
REMARK   59  A    between atoms: _137  and  _140
REMARK   60  A    between atoms: _140  and  _141
REMARK   61  A    between atoms: _143  and  _145
REMARK   62  A    between atoms: _145  and  _146
REMARK   63  A    between atoms: _149  and  _151
REMARK   64  A    between atoms: _151  and  _152
REMARK   65  A    between atoms: _151  and  _154
REMARK   66  A    between atoms: _154  and  _155
REMARK   67  A    between atoms: _165  and  _167
REMARK   68  A    between atoms: _167  and  _168
REMARK   69  A    between atoms: _167  and  _170
REMARK   70  A    between atoms: _170  and  _171
REMARK   71  A    between atoms: _174  and  _176
REMARK   72  A    between atoms: _176  and  _177
REMARK   73  A    between atoms: _176  and  _179
REMARK   74  A    between atoms: _179  and  _180
REMARK   75  A    between atoms: _186  and  _188
REMARK   76  A    between atoms: _188  and  _189
REMARK   77  A    between atoms: _188  and  _191
REMARK   78  A    between atoms: _191  and  _192
REMARK   79  A    between atoms: _197  and  _198
REMARK   80  A    between atoms: _200  and  _202
REMARK   81  A    between atoms: _202  and  _203
REMARK   82  A    between atoms: _202  and  _205
REMARK   83  A    between atoms: _205  and  _206
REMARK   84  A    between atoms: _209  and  _211
REMARK   85  A    between atoms: _211  and  _212
REMARK   86  A    between atoms: _211  and  _214
REMARK   87  A    between atoms: _217  and  _219
REMARK   88  A    between atoms: _219  and  _220
REMARK   89  A    between atoms: _219  and  _222
REMARK   90  A    between atoms: _222  and  _223
REMARK   91  A    between atoms: _223  and  _224
REMARK   92  A    between atoms: _224  and  _225
REMARK   93  A    between atoms: _234  and  _236
REMARK   94  A    between atoms: _236  and  _237
REMARK   95  A    between atoms: _236  and  _239
REMARK   96  A    between atoms: _239  and  _240
REMARK   97  A    between atoms: _243  and  _245
REMARK   98  A    between atoms: _245  and  _246
REMARK   99  A    between atoms: _245  and  _248
REMARK  100  A    between atoms: _248  and  _249
REMARK  101  A    between atoms: _249  and  _250
REMARK  102  A    between atoms: _250  and  _251
REMARK  103  A    between atoms: _251  and  _252
REMARK  104  A    between atoms: _256  and  _258
REMARK  105  A    between atoms: _258  and  _259
REMARK  106  A    between atoms: _258  and  _261
REMARK  107  A    between atoms: _261  and  _262
REMARK  108  A    between atoms: _262  and  _263
REMARK  109  A    between atoms: _268  and  _270
REMARK  110  A    between atoms: _270  and  _271
REMARK  111  A    between atoms: _270  and  _273
REMARK  112  A    between atoms: _273  and  _274
REMARK  113  A    between atoms: _277  and  _279
REMARK  114  A    between atoms: _290  and  _293
REMARK  115  A    between atoms: _293  and  _294
REMARK  116  A    between atoms: _294  and  _295
REMARK  117  A    between atoms: _300  and  _303
REMARK  118  A    between atoms: _303  and  _304
REMARK  119  A    between atoms: _314  and  _315
REMARK  120  A    between atoms: _323  and  _325
REMARK  121  A    between atoms: _325  and  _326
REMARK  122  A    between atoms: _325  and  _328
REMARK  123  A    between atoms: _328  and  _329
REMARK  124  A    between atoms: _332  and  _334
REMARK  125  A    between atoms: _334  and  _335
REMARK  126  A    between atoms: _334  and  _337
REMARK  127  A    between atoms: _337  and  _338
REMARK  128  A    between atoms: _343  and  _344
REMARK  129  A    between atoms: _346  and  _348
REMARK  130  A    between atoms: _348  and  _349
REMARK  131  A    between atoms: _348  and  _351
REMARK  132  A    between atoms: _351  and  _352
REMARK  133  A    between atoms: _358  and  _360
REMARK  134  A    between atoms: _360  and  _361
REMARK  135  A    between atoms: _360  and  _363
REMARK  136  A    between atoms: _363  and  _364
REMARK  137  A    between atoms: _369  and  _370
REMARK  138  A    between atoms: _372  and  _374
REMARK  139  A    between atoms: _374  and  _375
REMARK  140  A    between atoms: _374  and  _377
REMARK  141  A    between atoms: _377  and  _378
REMARK  142  A    between atoms: _384  and  _386
REMARK  143  A    between atoms: _386  and  _387
REMARK  144  A    between atoms: _386  and  _389
REMARK  145  A    between atoms: _389  and  _390
REMARK  146  A    between atoms: _390  and  _391
REMARK  147  A    between atoms: _391  and  _392
REMARK  148  A    between atoms: _401  and  _403
REMARK  149  A    between atoms: _403  and  _404
REMARK  150  A    between atoms: _403  and  _406
REMARK  151  A    between atoms: _406  and  _407
REMARK  152  A    between atoms: _410  and  _412
REMARK  153  A    between atoms: _412  and  _413
REMARK  154  A    between atoms: _415  and  _417
REMARK  155  A    between atoms: _417  and  _418
REMARK  156  A    between atoms: _421  and  _423
REMARK  157  A    between atoms: _423  and  _424
REMARK  158  A    between atoms: _423  and  _426
REMARK  159  A    between atoms: _426  and  _427
REMARK  160  A    between atoms: _433  and  _434
REMARK  161  A    between atoms: _439  and  _441
REMARK  162  A    between atoms: _441  and  _442
REMARK  163  A    between atoms: _444  and  _446
REMARK  164  A    between atoms: _446  and  _447
REMARK  165  A    between atoms: _446  and  _449
REMARK  166  A    between atoms: _449  and  _450
REMARK  167  A    between atoms: _456  and  _458
REMARK  168  A    between atoms: _458  and  _459
REMARK  169  A    between atoms: _458  and  _461
REMARK  170  A    between atoms: _461  and  _462
REMARK  171  A    between atoms: _467  and  _469
REMARK  172  A    between atoms: _469  and  _470
REMARK  173  A    between atoms: _469  and  _472
REMARK  174  A    between atoms: _472  and  _473
REMARK  175  A    between atoms: _473  and  _474
REMARK  176  A    between atoms: _474  and  _475
REMARK  177  A    between atoms: _475  and  ZN_601
REMARK  178  A    between atoms: _477  and  _479
REMARK  179  A    between atoms: _479  and  _480
REMARK  180  A    between atoms: _479  and  _482
REMARK  181  A    between atoms: _482  and  _483
REMARK  182  A    between atoms: _483  and  _484
REMARK  183  A    between atoms: _484  and  _485
REMARK  184  A    between atoms: _485  and  _486
REMARK  185  A    between atoms: _490  and  _492
REMARK  186  A    between atoms: _492  and  _493
REMARK  187  A    between atoms: _492  and  _495
REMARK  188  A    between atoms: _495  and  _496
REMARK  189  A    between atoms: _501  and  _502
REMARK  190  A    between atoms: _504  and  _506
REMARK  191  A    between atoms: _506  and  _507
REMARK  192  A    between atoms: _506  and  _509
REMARK  193  A    between atoms: _509  and  _510
REMARK  194  A    between atoms: _515  and  _517
REMARK  195  A    between atoms: _517  and  _518
REMARK  196  A    between atoms: _521  and  _523
REMARK  197  A    between atoms: _523  and  _524
REMARK  198  A    between atoms: _523  and  _526
REMARK  199  A    between atoms: _526  and  _527
REMARK  200  A    between atoms: _530  and  _532
REMARK  201  A    between atoms: _532  and  _533
REMARK  202  A    between atoms: _532  and  _535
REMARK  203  A    between atoms: _538  and  _540
REMARK  204  A    between atoms: _540  and  _541
REMARK  205  A    between atoms: _540  and  _543
REMARK  206  A    between atoms: _543  and  _544
REMARK  207  A    between atoms: _544  and  _545
REMARK  208  A    between atoms: _548  and  _550
REMARK  209  A    between atoms: _550  and  _551
REMARK  210  A    between atoms: _550  and  _553
REMARK  211  A    between atoms: _553  and  _554
REMARK  212  A    between atoms: _559  and  _560
REMARK  213  A    between atoms: _562  and  _564
REMARK  214  A    between atoms: _564  and  _565
REMARK  215  A    between atoms: _564  and  _567
REMARK  216  A    between atoms: _567  and  _568
REMARK  217  A    between atoms: _568  and  _569
REMARK  218  A    between atoms: _569  and  _570
REMARK  219  A    between atoms: _579  and  _581
REMARK  220  A    between atoms: _581  and  _582
REMARK  221  A    between atoms: _581  and  _584
REMARK  222  A    between atoms: _584  and  _585
REMARK  223  A    between atoms: _590  and  _591
REMARK  224  A    between atoms: _593  and  _595
REMARK  225  A    between atoms: _595  and  _596
REMARK  226  A    between atoms: _595  and  _598
REMARK  227  A    between atoms: _598  and  _599
REMARK                            x       y       z     vdW  Elec       q    Type
REMARK                         _______ _______ _______ _____ _____    ______ ____
ROOT
ATOM      1  O   HOH     1     -16.715  20.643  -9.081  0.00  0.00    +0.000 OA
ENDROOT
TORSDOF 0
REMARK  Name = ../refined-set-2016/2xhm/2xhm_pocket.pdb
REMARK  227 active torsions:
REMARK  status: ('A' for Active; 'I' for Inactive)
REMARK    1  A    between atoms: _1  and  _3
REMARK    2  A    between atoms: _3  and  _4
REMARK    3  A    between atoms: _3  and  _6
REMARK    4  A    between atoms: _6  and  _7
REMARK    5  A    between atoms: _10  and  _12
REMARK    6  A    between atoms: _12  and  _13
REMARK    7  A    between atoms: _12  and  _15
REMARK    8  A    between atoms: _15  and  _16
REMARK    9  A    between atoms: _16  and  _17
REMARK   10  A    between atoms: _20  and  _22
REMARK   11  A    between atoms: _22  and  _23
REMARK   12  A    between atoms: _22  and  _25
REMARK   13  A    between atoms: _25  and  _26
REMARK   14  A    between atoms: _29  and  _31
REMARK   15  A    between atoms: _31  and  _32
REMARK   16  A    between atoms: _31  and  _34
REMARK   17  A    between atoms: _34  and  _35
REMARK   18  A    between atoms: _35  and  _36
REMARK   19  A    between atoms: _39  and  _41
REMARK   20  A    between atoms: _41  and  _42
REMARK   21  A    between atoms: _45  and  _47
REMARK   22  A    between atoms: _47  and  _48
REMARK   23  A    between atoms: _51  and  _53
REMARK   24  A    between atoms: _53  and  _54
REMARK   25  A    between atoms: _53  and  _56
REMARK   26  A    between atoms: _56  and  _57
REMARK   27  A    between atoms: _67  and  _69
REMARK   28  A    between atoms: _69  and  _70
REMARK   29  A    between atoms: _69  and  _72
REMARK   30  A    between atoms: _72  and  _73
REMARK   31  A    between atoms: _73  and  _74
REMARK   32  A    between atoms: _74  and  _75
REMARK   33  A    between atoms: _75  and  _76
REMARK   34  A    between atoms: _80  and  _82
REMARK   35  A    between atoms: _82  and  _83
REMARK   36  A    between atoms: _82  and  _85
REMARK   37  A    between atoms: _85  and  _86
REMARK   38  A    between atoms: _88  and  _90
REMARK   39  A    between atoms: _90  and  _91
REMARK   40  A    between atoms: _90  and  _93
REMARK   41  A    between atoms: _93  and  _94
REMARK   42  A    between atoms: _94  and  _95
REMARK   43  A    between atoms: _98  and  _100
REMARK   44  A    between atoms: _100  and  _101
REMARK   45  A    between atoms: _100  and  _103
REMARK   46  A    between atoms: _103  and  _104
REMARK   47  A    between atoms: _104  and  _105
REMARK   48  A    between atoms: _110  and  _112
REMARK   49  A    between atoms: _112  and  _113
REMARK   50  A    between atoms: _112  and  _115
REMARK   51  A    between atoms: _118  and  _120
REMARK   52  A    between atoms: _120  and  _121
REMARK   53  A    between atoms: _120  and  _123
REMARK   54  A    between atoms: _123  and  _124
REMARK   55  A    between atoms: _129  and  _131
REMARK   56  A    between atoms: _131  and  _132
REMARK   57  A    between atoms: _135  and  _137
REMARK   58  A    between atoms: _137  and  _138
REMARK   59  A    between atoms: _137  and  _140
REMARK   60  A    between atoms: _140  and  _141
REMARK   61  A    between atoms: _143  and  _145
REMARK   62  A    between atoms: _145  and  _146
REMARK   63  A    between atoms: _149  and  _151
REMARK   64  A    between atoms: _151  and  _152
REMARK   65  A    between atoms: _151  and  _154
REMARK   66  A    between atoms: _154  and  _155
REMARK   67  A    between atoms: _165  and  _167
REMARK   68  A    between atoms: _167  and  _168
REMARK   69  A    between atoms: _167  and  _170
REMARK   70  A    between atoms: _170  and  _171
REMARK   71  A    between atoms: _174  and  _176
REMARK   72  A    between atoms: _176  and  _177
REMARK   73  A    between atoms: _176  and  _179
REMARK   74  A    between atoms: _179  and  _180
REMARK   75  A    between atoms: _186  and  _188
REMARK   76  A    between atoms: _188  and  _189
REMARK   77  A    between atoms: _188  and  _191
REMARK   78  A    between atoms: _191  and  _192
REMARK   79  A    between atoms: _197  and  _198
REMARK   80  A    between atoms: _200  and  _202
REMARK   81  A    between atoms: _202  and  _203
REMARK   82  A    between atoms: _202  and  _205
REMARK   83  A    between atoms: _205  and  _206
REMARK   84  A    between atoms: _209  and  _211
REMARK   85  A    between atoms: _211  and  _212
REMARK   86  A    between atoms: _211  and  _214
REMARK   87  A    between atoms: _217  and  _219
REMARK   88  A    between atoms: _219  and  _220
REMARK   89  A    between atoms: _219  and  _222
REMARK   90  A    between atoms: _222  and  _223
REMARK   91  A    between atoms: _223  and  _224
REMARK   92  A    between atoms: _224  and  _225
REMARK   93  A    between atoms: _234  and  _236
REMARK   94  A    between atoms: _236  and  _237
REMARK   95  A    between atoms: _236  and  _239
REMARK   96  A    between atoms: _239  and  _240
REMARK   97  A    between atoms: _243  and  _245
REMARK   98  A    between atoms: _245  and  _246
REMARK   99  A    between atoms: _245  and  _248
REMARK  100  A    between atoms: _248  and  _249
REMARK  101  A    between atoms: _249  and  _250
REMARK  102  A    between atoms: _250  and  _251
REMARK  103  A    between atoms: _251  and  _252
REMARK  104  A    between atoms: _256  and  _258
REMARK  105  A    between atoms: _258  and  _259
REMARK  106  A    between atoms: _258  and  _261
REMARK  107  A    between atoms: _261  and  _262
REMARK  108  A    between atoms: _262  and  _263
REMARK  109  A    between atoms: _268  and  _270
REMARK  110  A    between atoms: _270  and  _271
REMARK  111  A    between atoms: _270  and  _273
REMARK  112  A    between atoms: _273  and  _274
REMARK  113  A    between atoms: _277  and  _279
REMARK  114  A    between atoms: _290  and  _293
REMARK  115  A    between atoms: _293  and  _294
REMARK  116  A    between atoms: _294  and  _295
REMARK  117  A    between atoms: _300  and  _303
REMARK  118  A    between atoms: _303  and  _304
REMARK  119  A    between atoms: _314  and  _315
REMARK  120  A    between atoms: _323  and  _325
REMARK  121  A    between atoms: _325  and  _326
REMARK  122  A    between atoms: _325  and  _328
REMARK  123  A    between atoms: _328  and  _329
REMARK  124  A    between atoms: _332  and  _334
REMARK  125  A    between atoms: _334  and  _335
REMARK  126  A    between atoms: _334  and  _337
REMARK  127  A    between atoms: _337  and  _338
REMARK  128  A    between atoms: _343  and  _344
REMARK  129  A    between atoms: _346  and  _348
REMARK  130  A    between atoms: _348  and  _349
REMARK  131  A    between atoms: _348  and  _351
REMARK  132  A    between atoms: _351  and  _352
REMARK  133  A    between atoms: _358  and  _360
REMARK  134  A    between atoms: _360  and  _361
REMARK  135  A    between atoms: _360  and  _363
REMARK  136  A    between atoms: _363  and  _364
REMARK  137  A    between atoms: _369  and  _370
REMARK  138  A    between atoms: _372  and  _374
REMARK  139  A    between atoms: _374  and  _375
REMARK  140  A    between atoms: _374  and  _377
REMARK  141  A    between atoms: _377  and  _378
REMARK  142  A    between atoms: _384  and  _386
REMARK  143  A    between atoms: _386  and  _387
REMARK  144  A    between atoms: _386  and  _389
REMARK  145  A    between atoms: _389  and  _390
REMARK  146  A    between atoms: _390  and  _391
REMARK  147  A    between atoms: _391  and  _392
REMARK  148  A    between atoms: _401  and  _403
REMARK  149  A    between atoms: _403  and  _404
REMARK  150  A    between atoms: _403  and  _406
REMARK  151  A    between atoms: _406  and  _407
REMARK  152  A    between atoms: _410  and  _412
REMARK  153  A    between atoms: _412  and  _413
REMARK  154  A    between atoms: _415  and  _417
REMARK  155  A    between atoms: _417  and  _418
REMARK  156  A    between atoms: _421  and  _423
REMARK  157  A    between atoms: _423  and  _424
REMARK  158  A    between atoms: _423  and  _426
REMARK  159  A    between atoms: _426  and  _427
REMARK  160  A    between atoms: _433  and  _434
REMARK  161  A    between atoms: _439  and  _441
REMARK  162  A    between atoms: _441  and  _442
REMARK  163  A    between atoms: _444  and  _446
REMARK  164  A    between atoms: _446  and  _447
REMARK  165  A    between atoms: _446  and  _449
REMARK  166  A    between atoms: _449  and  _450
REMARK  167  A    between atoms: _456  and  _458
REMARK  168  A    between atoms: _458  and  _459
REMARK  169  A    between atoms: _458  and  _461
REMARK  170  A    between atoms: _461  and  _462
REMARK  171  A    between atoms: _467  and  _469
REMARK  172  A    between atoms: _469  and  _470
REMARK  173  A    between atoms: _469  and  _472
REMARK  174  A    between atoms: _472  and  _473
REMARK  175  A    between atoms: _473  and  _474
REMARK  176  A    between atoms: _474  and  _475
REMARK  177  A    between atoms: _475  and  ZN_601
REMARK  178  A    between atoms: _477  and  _479
REMARK  179  A    between atoms: _479  and  _480
REMARK  180  A    between atoms: _479  and  _482
REMARK  181  A    between atoms: _482  and  _483
REMARK  182  A    between atoms: _483  and  _484
REMARK  183  A    between atoms: _484  and  _485
REMARK  184  A    between atoms: _485  and  _486
REMARK  185  A    between atoms: _490  and  _492
REMARK  186  A    between atoms: _492  and  _493
REMARK  187  A    between atoms: _492  and  _495
REMARK  188  A    between atoms: _495  and  _496
REMARK  189  A    between atoms: _501  and  _502
REMARK  190  A    between atoms: _504  and  _506
REMARK  191  A    between atoms: _506  and  _507
REMARK  192  A    between atoms: _506  and  _509
REMARK  193  A    between atoms: _509  and  _510
REMARK  194  A    between atoms: _515  and  _517
REMARK  195  A    between atoms: _517  and  _518
REMARK  196  A    between atoms: _521  and  _523
REMARK  197  A    between atoms: _523  and  _524
REMARK  198  A    between atoms: _523  and  _526
REMARK  199  A    between atoms: _526  and  _527
REMARK  200  A    between atoms: _530  and  _532
REMARK  201  A    between atoms: _532  and  _533
REMARK  202  A    between atoms: _532  and  _535
REMARK  203  A    between atoms: _538  and  _540
REMARK  204  A    between atoms: _540  and  _541
REMARK  205  A    between atoms: _540  and  _543
REMARK  206  A    between atoms: _543  and  _544
REMARK  207  A    between atoms: _544  and  _545
REMARK  208  A    between atoms: _548  and  _550
REMARK  209  A    between atoms: _550  and  _551
REMARK  210  A    between atoms: _550  and  _553
REMARK  211  A    between atoms: _553  and  _554
REMARK  212  A    between atoms: _559  and  _560
REMARK  213  A    between atoms: _562  and  _564
REMARK  214  A    between atoms: _564  and  _565
REMARK  215  A    between atoms: _564  and  _567
REMARK  216  A    between atoms: _567  and  _568
REMARK  217  A    between atoms: _568  and  _569
REMARK  218  A    between atoms: _569  and  _570
REMARK  219  A    between atoms: _579  and  _581
REMARK  220  A    between atoms: _581  and  _582
REMARK  221  A    between atoms: _581  and  _584
REMARK  222  A    between atoms: _584  and  _585
REMARK  223  A    between atoms: _590  and  _591
REMARK  224  A    between atoms: _593  and  _595
REMARK  225  A    between atoms: _595  and  _596
REMARK  226  A    between atoms: _595  and  _598
REMARK  227  A    between atoms: _598  and  _599
REMARK                            x       y       z     vdW  Elec       q    Type
REMARK                         _______ _______ _______ _____ _____    ______ ____
ROOT
ATOM      1  O   HOH     1      -4.516  21.314 -19.044  0.00  0.00    +0.000 OA
ENDROOT
TORSDOF 0
REMARK  Name = ../refined-set-2016/2xhm/2xhm_pocket.pdb
REMARK  227 active torsions:
REMARK  status: ('A' for Active; 'I' for Inactive)
REMARK    1  A    between atoms: _1  and  _3
REMARK    2  A    between atoms: _3  and  _4
REMARK    3  A    between atoms: _3  and  _6
REMARK    4  A    between atoms: _6  and  _7
REMARK    5  A    between atoms: _10  and  _12
REMARK    6  A    between atoms: _12  and  _13
REMARK    7  A    between atoms: _12  and  _15
REMARK    8  A    between atoms: _15  and  _16
REMARK    9  A    between atoms: _16  and  _17
REMARK   10  A    between atoms: _20  and  _22
REMARK   11  A    between atoms: _22  and  _23
REMARK   12  A    between atoms: _22  and  _25
REMARK   13  A    between atoms: _25  and  _26
REMARK   14  A    between atoms: _29  and  _31
REMARK   15  A    between atoms: _31  and  _32
REMARK   16  A    between atoms: _31  and  _34
REMARK   17  A    between atoms: _34  and  _35
REMARK   18  A    between atoms: _35  and  _36
REMARK   19  A    between atoms: _39  and  _41
REMARK   20  A    between atoms: _41  and  _42
REMARK   21  A    between atoms: _45  and  _47
REMARK   22  A    between atoms: _47  and  _48
REMARK   23  A    between atoms: _51  and  _53
REMARK   24  A    between atoms: _53  and  _54
REMARK   25  A    between atoms: _53  and  _56
REMARK   26  A    between atoms: _56  and  _57
REMARK   27  A    between atoms: _67  and  _69
REMARK   28  A    between atoms: _69  and  _70
REMARK   29  A    between atoms: _69  and  _72
REMARK   30  A    between atoms: _72  and  _73
REMARK   31  A    between atoms: _73  and  _74
REMARK   32  A    between atoms: _74  and  _75
REMARK   33  A    between atoms: _75  and  _76
REMARK   34  A    between atoms: _80  and  _82
REMARK   35  A    between atoms: _82  and  _83
REMARK   36  A    between atoms: _82  and  _85
REMARK   37  A    between atoms: _85  and  _86
REMARK   38  A    between atoms: _88  and  _90
REMARK   39  A    between atoms: _90  and  _91
REMARK   40  A    between atoms: _90  and  _93
REMARK   41  A    between atoms: _93  and  _94
REMARK   42  A    between atoms: _94  and  _95
REMARK   43  A    between atoms: _98  and  _100
REMARK   44  A    between atoms: _100  and  _101
REMARK   45  A    between atoms: _100  and  _103
REMARK   46  A    between atoms: _103  and  _104
REMARK   47  A    between atoms: _104  and  _105
REMARK   48  A    between atoms: _110  and  _112
REMARK   49  A    between atoms: _112  and  _113
REMARK   50  A    between atoms: _112  and  _115
REMARK   51  A    between atoms: _118  and  _120
REMARK   52  A    between atoms: _120  and  _121
REMARK   53  A    between atoms: _120  and  _123
REMARK   54  A    between atoms: _123  and  _124
REMARK   55  A    between atoms: _129  and  _131
REMARK   56  A    between atoms: _131  and  _132
REMARK   57  A    between atoms: _135  and  _137
REMARK   58  A    between atoms: _137  and  _138
REMARK   59  A    between atoms: _137  and  _140
REMARK   60  A    between atoms: _140  and  _141
REMARK   61  A    between atoms: _143  and  _145
REMARK   62  A    between atoms: _145  and  _146
REMARK   63  A    between atoms: _149  and  _151
REMARK   64  A    between atoms: _151  and  _152
REMARK   65  A    between atoms: _151  and  _154
REMARK   66  A    between atoms: _154  and  _155
REMARK   67  A    between atoms: _165  and  _167
REMARK   68  A    between atoms: _167  and  _168
REMARK   69  A    between atoms: _167  and  _170
REMARK   70  A    between atoms: _170  and  _171
REMARK   71  A    between atoms: _174  and  _176
REMARK   72  A    between atoms: _176  and  _177
REMARK   73  A    between atoms: _176  and  _179
REMARK   74  A    between atoms: _179  and  _180
REMARK   75  A    between atoms: _186  and  _188
REMARK   76  A    between atoms: _188  and  _189
REMARK   77  A    between atoms: _188  and  _191
REMARK   78  A    between atoms: _191  and  _192
REMARK   79  A    between atoms: _197  and  _198
REMARK   80  A    between atoms: _200  and  _202
REMARK   81  A    between atoms: _202  and  _203
REMARK   82  A    between atoms: _202  and  _205
REMARK   83  A    between atoms: _205  and  _206
REMARK   84  A    between atoms: _209  and  _211
REMARK   85  A    between atoms: _211  and  _212
REMARK   86  A    between atoms: _211  and  _214
REMARK   87  A    between atoms: _217  and  _219
REMARK   88  A    between atoms: _219  and  _220
REMARK   89  A    between atoms: _219  and  _222
REMARK   90  A    between atoms: _222  and  _223
REMARK   91  A    between atoms: _223  and  _224
REMARK   92  A    between atoms: _224  and  _225
REMARK   93  A    between atoms: _234  and  _236
REMARK   94  A    between atoms: _236  and  _237
REMARK   95  A    between atoms: _236  and  _239
REMARK   96  A    between atoms: _239  and  _240
REMARK   97  A    between atoms: _243  and  _245
REMARK   98  A    between atoms: _245  and  _246
REMARK   99  A    between atoms: _245  and  _248
REMARK  100  A    between atoms: _248  and  _249
REMARK  101  A    between atoms: _249  and  _250
REMARK  102  A    between atoms: _250  and  _251
REMARK  103  A    between atoms: _251  and  _252
REMARK  104  A    between atoms: _256  and  _258
REMARK  105  A    between atoms: _258  and  _259
REMARK  106  A    between atoms: _258  and  _261
REMARK  107  A    between atoms: _261  and  _262
REMARK  108  A    between atoms: _262  and  _263
REMARK  109  A    between atoms: _268  and  _270
REMARK  110  A    between atoms: _270  and  _271
REMARK  111  A    between atoms: _270  and  _273
REMARK  112  A    between atoms: _273  and  _274
REMARK  113  A    between atoms: _277  and  _279
REMARK  114  A    between atoms: _290  and  _293
REMARK  115  A    between atoms: _293  and  _294
REMARK  116  A    between atoms: _294  and  _295
REMARK  117  A    between atoms: _300  and  _303
REMARK  118  A    between atoms: _303  and  _304
REMARK  119  A    between atoms: _314  and  _315
REMARK  120  A    between atoms: _323  and  _325
REMARK  121  A    between atoms: _325  and  _326
REMARK  122  A    between atoms: _325  and  _328
REMARK  123  A    between atoms: _328  and  _329
REMARK  124  A    between atoms: _332  and  _334
REMARK  125  A    between atoms: _334  and  _335
REMARK  126  A    between atoms: _334  and  _337
REMARK  127  A    between atoms: _337  and  _338
REMARK  128  A    between atoms: _343  and  _344
REMARK  129  A    between atoms: _346  and  _348
REMARK  130  A    between atoms: _348  and  _349
REMARK  131  A    between atoms: _348  and  _351
REMARK  132  A    between atoms: _351  and  _352
REMARK  133  A    between atoms: _358  and  _360
REMARK  134  A    between atoms: _360  and  _361
REMARK  135  A    between atoms: _360  and  _363
REMARK  136  A    between atoms: _363  and  _364
REMARK  137  A    between atoms: _369  and  _370
REMARK  138  A    between atoms: _372  and  _374
REMARK  139  A    between atoms: _374  and  _375
REMARK  140  A    between atoms: _374  and  _377
REMARK  141  A    between atoms: _377  and  _378
REMARK  142  A    between atoms: _384  and  _386
REMARK  143  A    between atoms: _386  and  _387
REMARK  144  A    between atoms: _386  and  _389
REMARK  145  A    between atoms: _389  and  _390
REMARK  146  A    between atoms: _390  and  _391
REMARK  147  A    between atoms: _391  and  _392
REMARK  148  A    between atoms: _401  and  _403
REMARK  149  A    between atoms: _403  and  _404
REMARK  150  A    between atoms: _403  and  _406
REMARK  151  A    between atoms: _406  and  _407
REMARK  152  A    between atoms: _410  and  _412
REMARK  153  A    between atoms: _412  and  _413
REMARK  154  A    between atoms: _415  and  _417
REMARK  155  A    between atoms: _417  and  _418
REMARK  156  A    between atoms: _421  and  _423
REMARK  157  A    between atoms: _423  and  _424
REMARK  158  A    between atoms: _423  and  _426
REMARK  159  A    between atoms: _426  and  _427
REMARK  160  A    between atoms: _433  and  _434
REMARK  161  A    between atoms: _439  and  _441
REMARK  162  A    between atoms: _441  and  _442
REMARK  163  A    between atoms: _444  and  _446
REMARK  164  A    between atoms: _446  and  _447
REMARK  165  A    between atoms: _446  and  _449
REMARK  166  A    between atoms: _449  and  _450
REMARK  167  A    between atoms: _456  and  _458
REMARK  168  A    between atoms: _458  and  _459
REMARK  169  A    between atoms: _458  and  _461
REMARK  170  A    between atoms: _461  and  _462
REMARK  171  A    between atoms: _467  and  _469
REMARK  172  A    between atoms: _469  and  _470
REMARK  173  A    between atoms: _469  and  _472
REMARK  174  A    between atoms: _472  and  _473
REMARK  175  A    between atoms: _473  and  _474
REMARK  176  A    between atoms: _474  and  _475
REMARK  177  A    between atoms: _475  and  ZN_601
REMARK  178  A    between atoms: _477  and  _479
REMARK  179  A    between atoms: _479  and  _480
REMARK  180  A    between atoms: _479  and  _482
REMARK  181  A    between atoms: _482  and  _483
REMARK  182  A    between atoms: _483  and  _484
REMARK  183  A    between atoms: _484  and  _485
REMARK  184  A    between atoms: _485  and  _486
REMARK  185  A    between atoms: _490  and  _492
REMARK  186  A    between atoms: _492  and  _493
REMARK  187  A    between atoms: _492  and  _495
REMARK  188  A    between atoms: _495  and  _496
REMARK  189  A    between atoms: _501  and  _502
REMARK  190  A    between atoms: _504  and  _506
REMARK  191  A    between atoms: _506  and  _507
REMARK  192  A    between atoms: _506  and  _509
REMARK  193  A    between atoms: _509  and  _510
REMARK  194  A    between atoms: _515  and  _517
REMARK  195  A    between atoms: _517  and  _518
REMARK  196  A    between atoms: _521  and  _523
REMARK  197  A    between atoms: _523  and  _524
REMARK  198  A    between atoms: _523  and  _526
REMARK  199  A    between atoms: _526  and  _527
REMARK  200  A    between atoms: _530  and  _532
REMARK  201  A    between atoms: _532  and  _533
REMARK  202  A    between atoms: _532  and  _535
REMARK  203  A    between atoms: _538  and  _540
REMARK  204  A    between atoms: _540  and  _541
REMARK  205  A    between atoms: _540  and  _543
REMARK  206  A    between atoms: _543  and  _544
REMARK  207  A    between atoms: _544  and  _545
REMARK  208  A    between atoms: _548  and  _550
REMARK  209  A    between atoms: _550  and  _551
REMARK  210  A    between atoms: _550  and  _553
REMARK  211  A    between atoms: _553  and  _554
REMARK  212  A    between atoms: _559  and  _560
REMARK  213  A    between atoms: _562  and  _564
REMARK  214  A    between atoms: _564  and  _565
REMARK  215  A    between atoms: _564  and  _567
REMARK  216  A    between atoms: _567  and  _568
REMARK  217  A    between atoms: _568  and  _569
REMARK  218  A    between atoms: _569  and  _570
REMARK  219  A    between atoms: _579  and  _581
REMARK  220  A    between atoms: _581  and  _582
REMARK  221  A    between atoms: _581  and  _584
REMARK  222  A    between atoms: _584  and  _585
REMARK  223  A    between atoms: _590  and  _591
REMARK  224  A    between atoms: _593  and  _595
REMARK  225  A    between atoms: _595  and  _596
REMARK  226  A    between atoms: _595  and  _598
REMARK  227  A    between atoms: _598  and  _599
REMARK                            x       y       z     vdW  Elec       q    Type
REMARK                         _______ _______ _______ _____ _____    ______ ____
ROOT
ATOM      1  O   HOH     1      -1.492  25.366 -21.193  0.00  0.00    +0.000 OA
ENDROOT
TORSDOF 0
REMARK  Name = ../refined-set-2016/2xhm/2xhm_pocket.pdb
REMARK  227 active torsions:
REMARK  status: ('A' for Active; 'I' for Inactive)
REMARK    1  A    between atoms: _1  and  _3
REMARK    2  A    between atoms: _3  and  _4
REMARK    3  A    between atoms: _3  and  _6
REMARK    4  A    between atoms: _6  and  _7
REMARK    5  A    between atoms: _10  and  _12
REMARK    6  A    between atoms: _12  and  _13
REMARK    7  A    between atoms: _12  and  _15
REMARK    8  A    between atoms: _15  and  _16
REMARK    9  A    between atoms: _16  and  _17
REMARK   10  A    between atoms: _20  and  _22
REMARK   11  A    between atoms: _22  and  _23
REMARK   12  A    between atoms: _22  and  _25
REMARK   13  A    between atoms: _25  and  _26
REMARK   14  A    between atoms: _29  and  _31
REMARK   15  A    between atoms: _31  and  _32
REMARK   16  A    between atoms: _31  and  _34
REMARK   17  A    between atoms: _34  and  _35
REMARK   18  A    between atoms: _35  and  _36
REMARK   19  A    between atoms: _39  and  _41
REMARK   20  A    between atoms: _41  and  _42
REMARK   21  A    between atoms: _45  and  _47
REMARK   22  A    between atoms: _47  and  _48
REMARK   23  A    between atoms: _51  and  _53
REMARK   24  A    between atoms: _53  and  _54
REMARK   25  A    between atoms: _53  and  _56
REMARK   26  A    between atoms: _56  and  _57
REMARK   27  A    between atoms: _67  and  _69
REMARK   28  A    between atoms: _69  and  _70
REMARK   29  A    between atoms: _69  and  _72
REMARK   30  A    between atoms: _72  and  _73
REMARK   31  A    between atoms: _73  and  _74
REMARK   32  A    between atoms: _74  and  _75
REMARK   33  A    between atoms: _75  and  _76
REMARK   34  A    between atoms: _80  and  _82
REMARK   35  A    between atoms: _82  and  _83
REMARK   36  A    between atoms: _82  and  _85
REMARK   37  A    between atoms: _85  and  _86
REMARK   38  A    between atoms: _88  and  _90
REMARK   39  A    between atoms: _90  and  _91
REMARK   40  A    between atoms: _90  and  _93
REMARK   41  A    between atoms: _93  and  _94
REMARK   42  A    between atoms: _94  and  _95
REMARK   43  A    between atoms: _98  and  _100
REMARK   44  A    between atoms: _100  and  _101
REMARK   45  A    between atoms: _100  and  _103
REMARK   46  A    between atoms: _103  and  _104
REMARK   47  A    between atoms: _104  and  _105
REMARK   48  A    between atoms: _110  and  _112
REMARK   49  A    between atoms: _112  and  _113
REMARK   50  A    between atoms: _112  and  _115
REMARK   51  A    between atoms: _118  and  _120
REMARK   52  A    between atoms: _120  and  _121
REMARK   53  A    between atoms: _120  and  _123
REMARK   54  A    between atoms: _123  and  _124
REMARK   55  A    between atoms: _129  and  _131
REMARK   56  A    between atoms: _131  and  _132
REMARK   57  A    between atoms: _135  and  _137
REMARK   58  A    between atoms: _137  and  _138
REMARK   59  A    between atoms: _137  and  _140
REMARK   60  A    between atoms: _140  and  _141
REMARK   61  A    between atoms: _143  and  _145
REMARK   62  A    between atoms: _145  and  _146
REMARK   63  A    between atoms: _149  and  _151
REMARK   64  A    between atoms: _151  and  _152
REMARK   65  A    between atoms: _151  and  _154
REMARK   66  A    between atoms: _154  and  _155
REMARK   67  A    between atoms: _165  and  _167
REMARK   68  A    between atoms: _167  and  _168
REMARK   69  A    between atoms: _167  and  _170
REMARK   70  A    between atoms: _170  and  _171
REMARK   71  A    between atoms: _174  and  _176
REMARK   72  A    between atoms: _176  and  _177
REMARK   73  A    between atoms: _176  and  _179
REMARK   74  A    between atoms: _179  and  _180
REMARK   75  A    between atoms: _186  and  _188
REMARK   76  A    between atoms: _188  and  _189
REMARK   77  A    between atoms: _188  and  _191
REMARK   78  A    between atoms: _191  and  _192
REMARK   79  A    between atoms: _197  and  _198
REMARK   80  A    between atoms: _200  and  _202
REMARK   81  A    between atoms: _202  and  _203
REMARK   82  A    between atoms: _202  and  _205
REMARK   83  A    between atoms: _205  and  _206
REMARK   84  A    between atoms: _209  and  _211
REMARK   85  A    between atoms: _211  and  _212
REMARK   86  A    between atoms: _211  and  _214
REMARK   87  A    between atoms: _217  and  _219
REMARK   88  A    between atoms: _219  and  _220
REMARK   89  A    between atoms: _219  and  _222
REMARK   90  A    between atoms: _222  and  _223
REMARK   91  A    between atoms: _223  and  _224
REMARK   92  A    between atoms: _224  and  _225
REMARK   93  A    between atoms: _234  and  _236
REMARK   94  A    between atoms: _236  and  _237
REMARK   95  A    between atoms: _236  and  _239
REMARK   96  A    between atoms: _239  and  _240
REMARK   97  A    between atoms: _243  and  _245
REMARK   98  A    between atoms: _245  and  _246
REMARK   99  A    between atoms: _245  and  _248
REMARK  100  A    between atoms: _248  and  _249
REMARK  101  A    between atoms: _249  and  _250
REMARK  102  A    between atoms: _250  and  _251
REMARK  103  A    between atoms: _251  and  _252
REMARK  104  A    between atoms: _256  and  _258
REMARK  105  A    between atoms: _258  and  _259
REMARK  106  A    between atoms: _258  and  _261
REMARK  107  A    between atoms: _261  and  _262
REMARK  108  A    between atoms: _262  and  _263
REMARK  109  A    between atoms: _268  and  _270
REMARK  110  A    between atoms: _270  and  _271
REMARK  111  A    between atoms: _270  and  _273
REMARK  112  A    between atoms: _273  and  _274
REMARK  113  A    between atoms: _277  and  _279
REMARK  114  A    between atoms: _290  and  _293
REMARK  115  A    between atoms: _293  and  _294
REMARK  116  A    between atoms: _294  and  _295
REMARK  117  A    between atoms: _300  and  _303
REMARK  118  A    between atoms: _303  and  _304
REMARK  119  A    between atoms: _314  and  _315
REMARK  120  A    between atoms: _323  and  _325
REMARK  121  A    between atoms: _325  and  _326
REMARK  122  A    between atoms: _325  and  _328
REMARK  123  A    between atoms: _328  and  _329
REMARK  124  A    between atoms: _332  and  _334
REMARK  125  A    between atoms: _334  and  _335
REMARK  126  A    between atoms: _334  and  _337
REMARK  127  A    between atoms: _337  and  _338
REMARK  128  A    between atoms: _343  and  _344
REMARK  129  A    between atoms: _346  and  _348
REMARK  130  A    between atoms: _348  and  _349
REMARK  131  A    between atoms: _348  and  _351
REMARK  132  A    between atoms: _351  and  _352
REMARK  133  A    between atoms: _358  and  _360
REMARK  134  A    between atoms: _360  and  _361
REMARK  135  A    between atoms: _360  and  _363
REMARK  136  A    between atoms: _363  and  _364
REMARK  137  A    between atoms: _369  and  _370
REMARK  138  A    between atoms: _372  and  _374
REMARK  139  A    between atoms: _374  and  _375
REMARK  140  A    between atoms: _374  and  _377
REMARK  141  A    between atoms: _377  and  _378
REMARK  142  A    between atoms: _384  and  _386
REMARK  143  A    between atoms: _386  and  _387
REMARK  144  A    between atoms: _386  and  _389
REMARK  145  A    between atoms: _389  and  _390
REMARK  146  A    between atoms: _390  and  _391
REMARK  147  A    between atoms: _391  and  _392
REMARK  148  A    between atoms: _401  and  _403
REMARK  149  A    between atoms: _403  and  _404
REMARK  150  A    between atoms: _403  and  _406
REMARK  151  A    between atoms: _406  and  _407
REMARK  152  A    between atoms: _410  and  _412
REMARK  153  A    between atoms: _412  and  _413
REMARK  154  A    between atoms: _415  and  _417
REMARK  155  A    between atoms: _417  and  _418
REMARK  156  A    between atoms: _421  and  _423
REMARK  157  A    between atoms: _423  and  _424
REMARK  158  A    between atoms: _423  and  _426
REMARK  159  A    between atoms: _426  and  _427
REMARK  160  A    between atoms: _433  and  _434
REMARK  161  A    between atoms: _439  and  _441
REMARK  162  A    between atoms: _441  and  _442
REMARK  163  A    between atoms: _444  and  _446
REMARK  164  A    between atoms: _446  and  _447
REMARK  165  A    between atoms: _446  and  _449
REMARK  166  A    between atoms: _449  and  _450
REMARK  167  A    between atoms: _456  and  _458
REMARK  168  A    between atoms: _458  and  _459
REMARK  169  A    between atoms: _458  and  _461
REMARK  170  A    between atoms: _461  and  _462
REMARK  171  A    between atoms: _467  and  _469
REMARK  172  A    between atoms: _469  and  _470
REMARK  173  A    between atoms: _469  and  _472
REMARK  174  A    between atoms: _472  and  _473
REMARK  175  A    between atoms: _473  and  _474
REMARK  176  A    between atoms: _474  and  _475
REMARK  177  A    between atoms: _475  and  ZN_601
REMARK  178  A    between atoms: _477  and  _479
REMARK  179  A    between atoms: _479  and  _480
REMARK  180  A    between atoms: _479  and  _482
REMARK  181  A    between atoms: _482  and  _483
REMARK  182  A    between atoms: _483  and  _484
REMARK  183  A    between atoms: _484  and  _485
REMARK  184  A    between atoms: _485  and  _486
REMARK  185  A    between atoms: _490  and  _492
REMARK  186  A    between atoms: _492  and  _493
REMARK  187  A    between atoms: _492  and  _495
REMARK  188  A    between atoms: _495  and  _496
REMARK  189  A    between atoms: _501  and  _502
REMARK  190  A    between atoms: _504  and  _506
REMARK  191  A    between atoms: _506  and  _507
REMARK  192  A    between atoms: _506  and  _509
REMARK  193  A    between atoms: _509  and  _510
REMARK  194  A    between atoms: _515  and  _517
REMARK  195  A    between atoms: _517  and  _518
REMARK  196  A    between atoms: _521  and  _523
REMARK  197  A    between atoms: _523  and  _524
REMARK  198  A    between atoms: _523  and  _526
REMARK  199  A    between atoms: _526  and  _527
REMARK  200  A    between atoms: _530  and  _532
REMARK  201  A    between atoms: _532  and  _533
REMARK  202  A    between atoms: _532  and  _535
REMARK  203  A    between atoms: _538  and  _540
REMARK  204  A    between atoms: _540  and  _541
REMARK  205  A    between atoms: _540  and  _543
REMARK  206  A    between atoms: _543  and  _544
REMARK  207  A    between atoms: _544  and  _545
REMARK  208  A    between atoms: _548  and  _550
REMARK  209  A    between atoms: _550  and  _551
REMARK  210  A    between atoms: _550  and  _553
REMARK  211  A    between atoms: _553  and  _554
REMARK  212  A    between atoms: _559  and  _560
REMARK  213  A    between atoms: _562  and  _564
REMARK  214  A    between atoms: _564  and  _565
REMARK  215  A    between atoms: _564  and  _567
REMARK  216  A    between atoms: _567  and  _568
REMARK  217  A    between atoms: _568  and  _569
REMARK  218  A    between atoms: _569  and  _570
REMARK  219  A    between atoms: _579  and  _581
REMARK  220  A    between atoms: _581  and  _582
REMARK  221  A    between atoms: _581  and  _584
REMARK  222  A    between atoms: _584  and  _585
REMARK  223  A    between atoms: _590  and  _591
REMARK  224  A    between atoms: _593  and  _595
REMARK  225  A    between atoms: _595  and  _596
REMARK  226  A    between atoms: _595  and  _598
REMARK  227  A    between atoms: _598  and  _599
REMARK                            x       y       z     vdW  Elec       q    Type
REMARK                         _______ _______ _______ _____ _____    ______ ____
ROOT
ATOM      1  O   HOH     1      -6.429  28.462 -20.583  0.00  0.00    +0.000 OA
ENDROOT
TORSDOF 0
REMARK  Name = ../refined-set-2016/2xhm/2xhm_pocket.pdb
REMARK  227 active torsions:
REMARK  status: ('A' for Active; 'I' for Inactive)
REMARK    1  A    between atoms: _1  and  _3
REMARK    2  A    between atoms: _3  and  _4
REMARK    3  A    between atoms: _3  and  _6
REMARK    4  A    between atoms: _6  and  _7
REMARK    5  A    between atoms: _10  and  _12
REMARK    6  A    between atoms: _12  and  _13
REMARK    7  A    between atoms: _12  and  _15
REMARK    8  A    between atoms: _15  and  _16
REMARK    9  A    between atoms: _16  and  _17
REMARK   10  A    between atoms: _20  and  _22
REMARK   11  A    between atoms: _22  and  _23
REMARK   12  A    between atoms: _22  and  _25
REMARK   13  A    between atoms: _25  and  _26
REMARK   14  A    between atoms: _29  and  _31
REMARK   15  A    between atoms: _31  and  _32
REMARK   16  A    between atoms: _31  and  _34
REMARK   17  A    between atoms: _34  and  _35
REMARK   18  A    between atoms: _35  and  _36
REMARK   19  A    between atoms: _39  and  _41
REMARK   20  A    between atoms: _41  and  _42
REMARK   21  A    between atoms: _45  and  _47
REMARK   22  A    between atoms: _47  and  _48
REMARK   23  A    between atoms: _51  and  _53
REMARK   24  A    between atoms: _53  and  _54
REMARK   25  A    between atoms: _53  and  _56
REMARK   26  A    between atoms: _56  and  _57
REMARK   27  A    between atoms: _67  and  _69
REMARK   28  A    between atoms: _69  and  _70
REMARK   29  A    between atoms: _69  and  _72
REMARK   30  A    between atoms: _72  and  _73
REMARK   31  A    between atoms: _73  and  _74
REMARK   32  A    between atoms: _74  and  _75
REMARK   33  A    between atoms: _75  and  _76
REMARK   34  A    between atoms: _80  and  _82
REMARK   35  A    between atoms: _82  and  _83
REMARK   36  A    between atoms: _82  and  _85
REMARK   37  A    between atoms: _85  and  _86
REMARK   38  A    between atoms: _88  and  _90
REMARK   39  A    between atoms: _90  and  _91
REMARK   40  A    between atoms: _90  and  _93
REMARK   41  A    between atoms: _93  and  _94
REMARK   42  A    between atoms: _94  and  _95
REMARK   43  A    between atoms: _98  and  _100
REMARK   44  A    between atoms: _100  and  _101
REMARK   45  A    between atoms: _100  and  _103
REMARK   46  A    between atoms: _103  and  _104
REMARK   47  A    between atoms: _104  and  _105
REMARK   48  A    between atoms: _110  and  _112
REMARK   49  A    between atoms: _112  and  _113
REMARK   50  A    between atoms: _112  and  _115
REMARK   51  A    between atoms: _118  and  _120
REMARK   52  A    between atoms: _120  and  _121
REMARK   53  A    between atoms: _120  and  _123
REMARK   54  A    between atoms: _123  and  _124
REMARK   55  A    between atoms: _129  and  _131
REMARK   56  A    between atoms: _131  and  _132
REMARK   57  A    between atoms: _135  and  _137
REMARK   58  A    between atoms: _137  and  _138
REMARK   59  A    between atoms: _137  and  _140
REMARK   60  A    between atoms: _140  and  _141
REMARK   61  A    between atoms: _143  and  _145
REMARK   62  A    between atoms: _145  and  _146
REMARK   63  A    between atoms: _149  and  _151
REMARK   64  A    between atoms: _151  and  _152
REMARK   65  A    between atoms: _151  and  _154
REMARK   66  A    between atoms: _154  and  _155
REMARK   67  A    between atoms: _165  and  _167
REMARK   68  A    between atoms: _167  and  _168
REMARK   69  A    between atoms: _167  and  _170
REMARK   70  A    between atoms: _170  and  _171
REMARK   71  A    between atoms: _174  and  _176
REMARK   72  A    between atoms: _176  and  _177
REMARK   73  A    between atoms: _176  and  _179
REMARK   74  A    between atoms: _179  and  _180
REMARK   75  A    between atoms: _186  and  _188
REMARK   76  A    between atoms: _188  and  _189
REMARK   77  A    between atoms: _188  and  _191
REMARK   78  A    between atoms: _191  and  _192
REMARK   79  A    between atoms: _197  and  _198
REMARK   80  A    between atoms: _200  and  _202
REMARK   81  A    between atoms: _202  and  _203
REMARK   82  A    between atoms: _202  and  _205
REMARK   83  A    between atoms: _205  and  _206
REMARK   84  A    between atoms: _209  and  _211
REMARK   85  A    between atoms: _211  and  _212
REMARK   86  A    between atoms: _211  and  _214
REMARK   87  A    between atoms: _217  and  _219
REMARK   88  A    between atoms: _219  and  _220
REMARK   89  A    between atoms: _219  and  _222
REMARK   90  A    between atoms: _222  and  _223
REMARK   91  A    between atoms: _223  and  _224
REMARK   92  A    between atoms: _224  and  _225
REMARK   93  A    between atoms: _234  and  _236
REMARK   94  A    between atoms: _236  and  _237
REMARK   95  A    between atoms: _236  and  _239
REMARK   96  A    between atoms: _239  and  _240
REMARK   97  A    between atoms: _243  and  _245
REMARK   98  A    between atoms: _245  and  _246
REMARK   99  A    between atoms: _245  and  _248
REMARK  100  A    between atoms: _248  and  _249
REMARK  101  A    between atoms: _249  and  _250
REMARK  102  A    between atoms: _250  and  _251
REMARK  103  A    between atoms: _251  and  _252
REMARK  104  A    between atoms: _256  and  _258
REMARK  105  A    between atoms: _258  and  _259
REMARK  106  A    between atoms: _258  and  _261
REMARK  107  A    between atoms: _261  and  _262
REMARK  108  A    between atoms: _262  and  _263
REMARK  109  A    between atoms: _268  and  _270
REMARK  110  A    between atoms: _270  and  _271
REMARK  111  A    between atoms: _270  and  _273
REMARK  112  A    between atoms: _273  and  _274
REMARK  113  A    between atoms: _277  and  _279
REMARK  114  A    between atoms: _290  and  _293
REMARK  115  A    between atoms: _293  and  _294
REMARK  116  A    between atoms: _294  and  _295
REMARK  117  A    between atoms: _300  and  _303
REMARK  118  A    between atoms: _303  and  _304
REMARK  119  A    between atoms: _314  and  _315
REMARK  120  A    between atoms: _323  and  _325
REMARK  121  A    between atoms: _325  and  _326
REMARK  122  A    between atoms: _325  and  _328
REMARK  123  A    between atoms: _328  and  _329
REMARK  124  A    between atoms: _332  and  _334
REMARK  125  A    between atoms: _334  and  _335
REMARK  126  A    between atoms: _334  and  _337
REMARK  127  A    between atoms: _337  and  _338
REMARK  128  A    between atoms: _343  and  _344
REMARK  129  A    between atoms: _346  and  _348
REMARK  130  A    between atoms: _348  and  _349
REMARK  131  A    between atoms: _348  and  _351
REMARK  132  A    between atoms: _351  and  _352
REMARK  133  A    between atoms: _358  and  _360
REMARK  134  A    between atoms: _360  and  _361
REMARK  135  A    between atoms: _360  and  _363
REMARK  136  A    between atoms: _363  and  _364
REMARK  137  A    between atoms: _369  and  _370
REMARK  138  A    between atoms: _372  and  _374
REMARK  139  A    between atoms: _374  and  _375
REMARK  140  A    between atoms: _374  and  _377
REMARK  141  A    between atoms: _377  and  _378
REMARK  142  A    between atoms: _384  and  _386
REMARK  143  A    between atoms: _386  and  _387
REMARK  144  A    between atoms: _386  and  _389
REMARK  145  A    between atoms: _389  and  _390
REMARK  146  A    between atoms: _390  and  _391
REMARK  147  A    between atoms: _391  and  _392
REMARK  148  A    between atoms: _401  and  _403
REMARK  149  A    between atoms: _403  and  _404
REMARK  150  A    between atoms: _403  and  _406
REMARK  151  A    between atoms: _406  and  _407
REMARK  152  A    between atoms: _410  and  _412
REMARK  153  A    between atoms: _412  and  _413
REMARK  154  A    between atoms: _415  and  _417
REMARK  155  A    between atoms: _417  and  _418
REMARK  156  A    between atoms: _421  and  _423
REMARK  157  A    between atoms: _423  and  _424
REMARK  158  A    between atoms: _423  and  _426
REMARK  159  A    between atoms: _426  and  _427
REMARK  160  A    between atoms: _433  and  _434
REMARK  161  A    between atoms: _439  and  _441
REMARK  162  A    between atoms: _441  and  _442
REMARK  163  A    between atoms: _444  and  _446
REMARK  164  A    between atoms: _446  and  _447
REMARK  165  A    between atoms: _446  and  _449
REMARK  166  A    between atoms: _449  and  _450
REMARK  167  A    between atoms: _456  and  _458
REMARK  168  A    between atoms: _458  and  _459
REMARK  169  A    between atoms: _458  and  _461
REMARK  170  A    between atoms: _461  and  _462
REMARK  171  A    between atoms: _467  and  _469
REMARK  172  A    between atoms: _469  and  _470
REMARK  173  A    between atoms: _469  and  _472
REMARK  174  A    between atoms: _472  and  _473
REMARK  175  A    between atoms: _473  and  _474
REMARK  176  A    between atoms: _474  and  _475
REMARK  177  A    between atoms: _475  and  ZN_601
REMARK  178  A    between atoms: _477  and  _479
REMARK  179  A    between atoms: _479  and  _480
REMARK  180  A    between atoms: _479  and  _482
REMARK  181  A    between atoms: _482  and  _483
REMARK  182  A    between atoms: _483  and  _484
REMARK  183  A    between atoms: _484  and  _485
REMARK  184  A    between atoms: _485  and  _486
REMARK  185  A    between atoms: _490  and  _492
REMARK  186  A    between atoms: _492  and  _493
REMARK  187  A    between atoms: _492  and  _495
REMARK  188  A    between atoms: _495  and  _496
REMARK  189  A    between atoms: _501  and  _502
REMARK  190  A    between atoms: _504  and  _506
REMARK  191  A    between atoms: _506  and  _507
REMARK  192  A    between atoms: _506  and  _509
REMARK  193  A    between atoms: _509  and  _510
REMARK  194  A    between atoms: _515  and  _517
REMARK  195  A    between atoms: _517  and  _518
REMARK  196  A    between atoms: _521  and  _523
REMARK  197  A    between atoms: _523  and  _524
REMARK  198  A    between atoms: _523  and  _526
REMARK  199  A    between atoms: _526  and  _527
REMARK  200  A    between atoms: _530  and  _532
REMARK  201  A    between atoms: _532  and  _533
REMARK  202  A    between atoms: _532  and  _535
REMARK  203  A    between atoms: _538  and  _540
REMARK  204  A    between atoms: _540  and  _541
REMARK  205  A    between atoms: _540  and  _543
REMARK  206  A    between atoms: _543  and  _544
REMARK  207  A    between atoms: _544  and  _545
REMARK  208  A    between atoms: _548  and  _550
REMARK  209  A    between atoms: _550  and  _551
REMARK  210  A    between atoms: _550  and  _553
REMARK  211  A    between atoms: _553  and  _554
REMARK  212  A    between atoms: _559  and  _560
REMARK  213  A    between atoms: _562  and  _564
REMARK  214  A    between atoms: _564  and  _565
REMARK  215  A    between atoms: _564  and  _567
REMARK  216  A    between atoms: _567  and  _568
REMARK  217  A    between atoms: _568  and  _569
REMARK  218  A    between atoms: _569  and  _570
REMARK  219  A    between atoms: _579  and  _581
REMARK  220  A    between atoms: _581  and  _582
REMARK  221  A    between atoms: _581  and  _584
REMARK  222  A    between atoms: _584  and  _585
REMARK  223  A    between atoms: _590  and  _591
REMARK  224  A    between atoms: _593  and  _595
REMARK  225  A    between atoms: _595  and  _596
REMARK  226  A    between atoms: _595  and  _598
REMARK  227  A    between atoms: _598  and  _599
REMARK                            x       y       z     vdW  Elec       q    Type
REMARK                         _______ _______ _______ _____ _____    ______ ____
ROOT
ATOM      1  O   HOH     1      -9.917  27.647 -22.606  0.00  0.00    +0.000 OA
ENDROOT
TORSDOF 0
REMARK  Name = ../refined-set-2016/2xhm/2xhm_pocket.pdb
REMARK  227 active torsions:
REMARK  status: ('A' for Active; 'I' for Inactive)
REMARK    1  A    between atoms: _1  and  _3
REMARK    2  A    between atoms: _3  and  _4
REMARK    3  A    between atoms: _3  and  _6
REMARK    4  A    between atoms: _6  and  _7
REMARK    5  A    between atoms: _10  and  _12
REMARK    6  A    between atoms: _12  and  _13
REMARK    7  A    between atoms: _12  and  _15
REMARK    8  A    between atoms: _15  and  _16
REMARK    9  A    between atoms: _16  and  _17
REMARK   10  A    between atoms: _20  and  _22
REMARK   11  A    between atoms: _22  and  _23
REMARK   12  A    between atoms: _22  and  _25
REMARK   13  A    between atoms: _25  and  _26
REMARK   14  A    between atoms: _29  and  _31
REMARK   15  A    between atoms: _31  and  _32
REMARK   16  A    between atoms: _31  and  _34
REMARK   17  A    between atoms: _34  and  _35
REMARK   18  A    between atoms: _35  and  _36
REMARK   19  A    between atoms: _39  and  _41
REMARK   20  A    between atoms: _41  and  _42
REMARK   21  A    between atoms: _45  and  _47
REMARK   22  A    between atoms: _47  and  _48
REMARK   23  A    between atoms: _51  and  _53
REMARK   24  A    between atoms: _53  and  _54
REMARK   25  A    between atoms: _53  and  _56
REMARK   26  A    between atoms: _56  and  _57
REMARK   27  A    between atoms: _67  and  _69
REMARK   28  A    between atoms: _69  and  _70
REMARK   29  A    between atoms: _69  and  _72
REMARK   30  A    between atoms: _72  and  _73
REMARK   31  A    between atoms: _73  and  _74
REMARK   32  A    between atoms: _74  and  _75
REMARK   33  A    between atoms: _75  and  _76
REMARK   34  A    between atoms: _80  and  _82
REMARK   35  A    between atoms: _82  and  _83
REMARK   36  A    between atoms: _82  and  _85
REMARK   37  A    between atoms: _85  and  _86
REMARK   38  A    between atoms: _88  and  _90
REMARK   39  A    between atoms: _90  and  _91
REMARK   40  A    between atoms: _90  and  _93
REMARK   41  A    between atoms: _93  and  _94
REMARK   42  A    between atoms: _94  and  _95
REMARK   43  A    between atoms: _98  and  _100
REMARK   44  A    between atoms: _100  and  _101
REMARK   45  A    between atoms: _100  and  _103
REMARK   46  A    between atoms: _103  and  _104
REMARK   47  A    between atoms: _104  and  _105
REMARK   48  A    between atoms: _110  and  _112
REMARK   49  A    between atoms: _112  and  _113
REMARK   50  A    between atoms: _112  and  _115
REMARK   51  A    between atoms: _118  and  _120
REMARK   52  A    between atoms: _120  and  _121
REMARK   53  A    between atoms: _120  and  _123
REMARK   54  A    between atoms: _123  and  _124
REMARK   55  A    between atoms: _129  and  _131
REMARK   56  A    between atoms: _131  and  _132
REMARK   57  A    between atoms: _135  and  _137
REMARK   58  A    between atoms: _137  and  _138
REMARK   59  A    between atoms: _137  and  _140
REMARK   60  A    between atoms: _140  and  _141
REMARK   61  A    between atoms: _143  and  _145
REMARK   62  A    between atoms: _145  and  _146
REMARK   63  A    between atoms: _149  and  _151
REMARK   64  A    between atoms: _151  and  _152
REMARK   65  A    between atoms: _151  and  _154
REMARK   66  A    between atoms: _154  and  _155
REMARK   67  A    between atoms: _165  and  _167
REMARK   68  A    between atoms: _167  and  _168
REMARK   69  A    between atoms: _167  and  _170
REMARK   70  A    between atoms: _170  and  _171
REMARK   71  A    between atoms: _174  and  _176
REMARK   72  A    between atoms: _176  and  _177
REMARK   73  A    between atoms: _176  and  _179
REMARK   74  A    between atoms: _179  and  _180
REMARK   75  A    between atoms: _186  and  _188
REMARK   76  A    between atoms: _188  and  _189
REMARK   77  A    between atoms: _188  and  _191
REMARK   78  A    between atoms: _191  and  _192
REMARK   79  A    between atoms: _197  and  _198
REMARK   80  A    between atoms: _200  and  _202
REMARK   81  A    between atoms: _202  and  _203
REMARK   82  A    between atoms: _202  and  _205
REMARK   83  A    between atoms: _205  and  _206
REMARK   84  A    between atoms: _209  and  _211
REMARK   85  A    between atoms: _211  and  _212
REMARK   86  A    between atoms: _211  and  _214
REMARK   87  A    between atoms: _217  and  _219
REMARK   88  A    between atoms: _219  and  _220
REMARK   89  A    between atoms: _219  and  _222
REMARK   90  A    between atoms: _222  and  _223
REMARK   91  A    between atoms: _223  and  _224
REMARK   92  A    between atoms: _224  and  _225
REMARK   93  A    between atoms: _234  and  _236
REMARK   94  A    between atoms: _236  and  _237
REMARK   95  A    between atoms: _236  and  _239
REMARK   96  A    between atoms: _239  and  _240
REMARK   97  A    between atoms: _243  and  _245
REMARK   98  A    between atoms: _245  and  _246
REMARK   99  A    between atoms: _245  and  _248
REMARK  100  A    between atoms: _248  and  _249
REMARK  101  A    between atoms: _249  and  _250
REMARK  102  A    between atoms: _250  and  _251
REMARK  103  A    between atoms: _251  and  _252
REMARK  104  A    between atoms: _256  and  _258
REMARK  105  A    between atoms: _258  and  _259
REMARK  106  A    between atoms: _258  and  _261
REMARK  107  A    between atoms: _261  and  _262
REMARK  108  A    between atoms: _262  and  _263
REMARK  109  A    between atoms: _268  and  _270
REMARK  110  A    between atoms: _270  and  _271
REMARK  111  A    between atoms: _270  and  _273
REMARK  112  A    between atoms: _273  and  _274
REMARK  113  A    between atoms: _277  and  _279
REMARK  114  A    between atoms: _290  and  _293
REMARK  115  A    between atoms: _293  and  _294
REMARK  116  A    between atoms: _294  and  _295
REMARK  117  A    between atoms: _300  and  _303
REMARK  118  A    between atoms: _303  and  _304
REMARK  119  A    between atoms: _314  and  _315
REMARK  120  A    between atoms: _323  and  _325
REMARK  121  A    between atoms: _325  and  _326
REMARK  122  A    between atoms: _325  and  _328
REMARK  123  A    between atoms: _328  and  _329
REMARK  124  A    between atoms: _332  and  _334
REMARK  125  A    between atoms: _334  and  _335
REMARK  126  A    between atoms: _334  and  _337
REMARK  127  A    between atoms: _337  and  _338
REMARK  128  A    between atoms: _343  and  _344
REMARK  129  A    between atoms: _346  and  _348
REMARK  130  A    between atoms: _348  and  _349
REMARK  131  A    between atoms: _348  and  _351
REMARK  132  A    between atoms: _351  and  _352
REMARK  133  A    between atoms: _358  and  _360
REMARK  134  A    between atoms: _360  and  _361
REMARK  135  A    between atoms: _360  and  _363
REMARK  136  A    between atoms: _363  and  _364
REMARK  137  A    between atoms: _369  and  _370
REMARK  138  A    between atoms: _372  and  _374
REMARK  139  A    between atoms: _374  and  _375
REMARK  140  A    between atoms: _374  and  _377
REMARK  141  A    between atoms: _377  and  _378
REMARK  142  A    between atoms: _384  and  _386
REMARK  143  A    between atoms: _386  and  _387
REMARK  144  A    between atoms: _386  and  _389
REMARK  145  A    between atoms: _389  and  _390
REMARK  146  A    between atoms: _390  and  _391
REMARK  147  A    between atoms: _391  and  _392
REMARK  148  A    between atoms: _401  and  _403
REMARK  149  A    between atoms: _403  and  _404
REMARK  150  A    between atoms: _403  and  _406
REMARK  151  A    between atoms: _406  and  _407
REMARK  152  A    between atoms: _410  and  _412
REMARK  153  A    between atoms: _412  and  _413
REMARK  154  A    between atoms: _415  and  _417
REMARK  155  A    between atoms: _417  and  _418
REMARK  156  A    between atoms: _421  and  _423
REMARK  157  A    between atoms: _423  and  _424
REMARK  158  A    between atoms: _423  and  _426
REMARK  159  A    between atoms: _426  and  _427
REMARK  160  A    between atoms: _433  and  _434
REMARK  161  A    between atoms: _439  and  _441
REMARK  162  A    between atoms: _441  and  _442
REMARK  163  A    between atoms: _444  and  _446
REMARK  164  A    between atoms: _446  and  _447
REMARK  165  A    between atoms: _446  and  _449
REMARK  166  A    between atoms: _449  and  _450
REMARK  167  A    between atoms: _456  and  _458
REMARK  168  A    between atoms: _458  and  _459
REMARK  169  A    between atoms: _458  and  _461
REMARK  170  A    between atoms: _461  and  _462
REMARK  171  A    between atoms: _467  and  _469
REMARK  172  A    between atoms: _469  and  _470
REMARK  173  A    between atoms: _469  and  _472
REMARK  174  A    between atoms: _472  and  _473
REMARK  175  A    between atoms: _473  and  _474
REMARK  176  A    between atoms: _474  and  _475
REMARK  177  A    between atoms: _475  and  ZN_601
REMARK  178  A    between atoms: _477  and  _479
REMARK  179  A    between atoms: _479  and  _480
REMARK  180  A    between atoms: _479  and  _482
REMARK  181  A    between atoms: _482  and  _483
REMARK  182  A    between atoms: _483  and  _484
REMARK  183  A    between atoms: _484  and  _485
REMARK  184  A    between atoms: _485  and  _486
REMARK  185  A    between atoms: _490  and  _492
REMARK  186  A    between atoms: _492  and  _493
REMARK  187  A    between atoms: _492  and  _495
REMARK  188  A    between atoms: _495  and  _496
REMARK  189  A    between atoms: _501  and  _502
REMARK  190  A    between atoms: _504  and  _506
REMARK  191  A    between atoms: _506  and  _507
REMARK  192  A    between atoms: _506  and  _509
REMARK  193  A    between atoms: _509  and  _510
REMARK  194  A    between atoms: _515  and  _517
REMARK  195  A    between atoms: _517  and  _518
REMARK  196  A    between atoms: _521  and  _523
REMARK  197  A    between atoms: _523  and  _524
REMARK  198  A    between atoms: _523  and  _526
REMARK  199  A    between atoms: _526  and  _527
REMARK  200  A    between atoms: _530  and  _532
REMARK  201  A    between atoms: _532  and  _533
REMARK  202  A    between atoms: _532  and  _535
REMARK  203  A    between atoms: _538  and  _540
REMARK  204  A    between atoms: _540  and  _541
REMARK  205  A    between atoms: _540  and  _543
REMARK  206  A    between atoms: _543  and  _544
REMARK  207  A    between atoms: _544  and  _545
REMARK  208  A    between atoms: _548  and  _550
REMARK  209  A    between atoms: _550  and  _551
REMARK  210  A    between atoms: _550  and  _553
REMARK  211  A    between atoms: _553  and  _554
REMARK  212  A    between atoms: _559  and  _560
REMARK  213  A    between atoms: _562  and  _564
REMARK  214  A    between atoms: _564  and  _565
REMARK  215  A    between atoms: _564  and  _567
REMARK  216  A    between atoms: _567  and  _568
REMARK  217  A    between atoms: _568  and  _569
REMARK  218  A    between atoms: _569  and  _570
REMARK  219  A    between atoms: _579  and  _581
REMARK  220  A    between atoms: _581  and  _582
REMARK  221  A    between atoms: _581  and  _584
REMARK  222  A    between atoms: _584  and  _585
REMARK  223  A    between atoms: _590  and  _591
REMARK  224  A    between atoms: _593  and  _595
REMARK  225  A    between atoms: _595  and  _596
REMARK  226  A    between atoms: _595  and  _598
REMARK  227  A    between atoms: _598  and  _599
REMARK                            x       y       z     vdW  Elec       q    Type
REMARK                         _______ _______ _______ _____ _____    ______ ____
ROOT
ATOM      1  O   HOH     1      -8.404  28.619 -25.184  0.00  0.00    +0.000 OA
ENDROOT
TORSDOF 0
REMARK  Name = ../refined-set-2016/2xhm/2xhm_pocket.pdb
REMARK  227 active torsions:
REMARK  status: ('A' for Active; 'I' for Inactive)
REMARK    1  A    between atoms: _1  and  _3
REMARK    2  A    between atoms: _3  and  _4
REMARK    3  A    between atoms: _3  and  _6
REMARK    4  A    between atoms: _6  and  _7
REMARK    5  A    between atoms: _10  and  _12
REMARK    6  A    between atoms: _12  and  _13
REMARK    7  A    between atoms: _12  and  _15
REMARK    8  A    between atoms: _15  and  _16
REMARK    9  A    between atoms: _16  and  _17
REMARK   10  A    between atoms: _20  and  _22
REMARK   11  A    between atoms: _22  and  _23
REMARK   12  A    between atoms: _22  and  _25
REMARK   13  A    between atoms: _25  and  _26
REMARK   14  A    between atoms: _29  and  _31
REMARK   15  A    between atoms: _31  and  _32
REMARK   16  A    between atoms: _31  and  _34
REMARK   17  A    between atoms: _34  and  _35
REMARK   18  A    between atoms: _35  and  _36
REMARK   19  A    between atoms: _39  and  _41
REMARK   20  A    between atoms: _41  and  _42
REMARK   21  A    between atoms: _45  and  _47
REMARK   22  A    between atoms: _47  and  _48
REMARK   23  A    between atoms: _51  and  _53
REMARK   24  A    between atoms: _53  and  _54
REMARK   25  A    between atoms: _53  and  _56
REMARK   26  A    between atoms: _56  and  _57
REMARK   27  A    between atoms: _67  and  _69
REMARK   28  A    between atoms: _69  and  _70
REMARK   29  A    between atoms: _69  and  _72
REMARK   30  A    between atoms: _72  and  _73
REMARK   31  A    between atoms: _73  and  _74
REMARK   32  A    between atoms: _74  and  _75
REMARK   33  A    between atoms: _75  and  _76
REMARK   34  A    between atoms: _80  and  _82
REMARK   35  A    between atoms: _82  and  _83
REMARK   36  A    between atoms: _82  and  _85
REMARK   37  A    between atoms: _85  and  _86
REMARK   38  A    between atoms: _88  and  _90
REMARK   39  A    between atoms: _90  and  _91
REMARK   40  A    between atoms: _90  and  _93
REMARK   41  A    between atoms: _93  and  _94
REMARK   42  A    between atoms: _94  and  _95
REMARK   43  A    between atoms: _98  and  _100
REMARK   44  A    between atoms: _100  and  _101
REMARK   45  A    between atoms: _100  and  _103
REMARK   46  A    between atoms: _103  and  _104
REMARK   47  A    between atoms: _104  and  _105
REMARK   48  A    between atoms: _110  and  _112
REMARK   49  A    between atoms: _112  and  _113
REMARK   50  A    between atoms: _112  and  _115
REMARK   51  A    between atoms: _118  and  _120
REMARK   52  A    between atoms: _120  and  _121
REMARK   53  A    between atoms: _120  and  _123
REMARK   54  A    between atoms: _123  and  _124
REMARK   55  A    between atoms: _129  and  _131
REMARK   56  A    between atoms: _131  and  _132
REMARK   57  A    between atoms: _135  and  _137
REMARK   58  A    between atoms: _137  and  _138
REMARK   59  A    between atoms: _137  and  _140
REMARK   60  A    between atoms: _140  and  _141
REMARK   61  A    between atoms: _143  and  _145
REMARK   62  A    between atoms: _145  and  _146
REMARK   63  A    between atoms: _149  and  _151
REMARK   64  A    between atoms: _151  and  _152
REMARK   65  A    between atoms: _151  and  _154
REMARK   66  A    between atoms: _154  and  _155
REMARK   67  A    between atoms: _165  and  _167
REMARK   68  A    between atoms: _167  and  _168
REMARK   69  A    between atoms: _167  and  _170
REMARK   70  A    between atoms: _170  and  _171
REMARK   71  A    between atoms: _174  and  _176
REMARK   72  A    between atoms: _176  and  _177
REMARK   73  A    between atoms: _176  and  _179
REMARK   74  A    between atoms: _179  and  _180
REMARK   75  A    between atoms: _186  and  _188
REMARK   76  A    between atoms: _188  and  _189
REMARK   77  A    between atoms: _188  and  _191
REMARK   78  A    between atoms: _191  and  _192
REMARK   79  A    between atoms: _197  and  _198
REMARK   80  A    between atoms: _200  and  _202
REMARK   81  A    between atoms: _202  and  _203
REMARK   82  A    between atoms: _202  and  _205
REMARK   83  A    between atoms: _205  and  _206
REMARK   84  A    between atoms: _209  and  _211
REMARK   85  A    between atoms: _211  and  _212
REMARK   86  A    between atoms: _211  and  _214
REMARK   87  A    between atoms: _217  and  _219
REMARK   88  A    between atoms: _219  and  _220
REMARK   89  A    between atoms: _219  and  _222
REMARK   90  A    between atoms: _222  and  _223
REMARK   91  A    between atoms: _223  and  _224
REMARK   92  A    between atoms: _224  and  _225
REMARK   93  A    between atoms: _234  and  _236
REMARK   94  A    between atoms: _236  and  _237
REMARK   95  A    between atoms: _236  and  _239
REMARK   96  A    between atoms: _239  and  _240
REMARK   97  A    between atoms: _243  and  _245
REMARK   98  A    between atoms: _245  and  _246
REMARK   99  A    between atoms: _245  and  _248
REMARK  100  A    between atoms: _248  and  _249
REMARK  101  A    between atoms: _249  and  _250
REMARK  102  A    between atoms: _250  and  _251
REMARK  103  A    between atoms: _251  and  _252
REMARK  104  A    between atoms: _256  and  _258
REMARK  105  A    between atoms: _258  and  _259
REMARK  106  A    between atoms: _258  and  _261
REMARK  107  A    between atoms: _261  and  _262
REMARK  108  A    between atoms: _262  and  _263
REMARK  109  A    between atoms: _268  and  _270
REMARK  110  A    between atoms: _270  and  _271
REMARK  111  A    between atoms: _270  and  _273
REMARK  112  A    between atoms: _273  and  _274
REMARK  113  A    between atoms: _277  and  _279
REMARK  114  A    between atoms: _290  and  _293
REMARK  115  A    between atoms: _293  and  _294
REMARK  116  A    between atoms: _294  and  _295
REMARK  117  A    between atoms: _300  and  _303
REMARK  118  A    between atoms: _303  and  _304
REMARK  119  A    between atoms: _314  and  _315
REMARK  120  A    between atoms: _323  and  _325
REMARK  121  A    between atoms: _325  and  _326
REMARK  122  A    between atoms: _325  and  _328
REMARK  123  A    between atoms: _328  and  _329
REMARK  124  A    between atoms: _332  and  _334
REMARK  125  A    between atoms: _334  and  _335
REMARK  126  A    between atoms: _334  and  _337
REMARK  127  A    between atoms: _337  and  _338
REMARK  128  A    between atoms: _343  and  _344
REMARK  129  A    between atoms: _346  and  _348
REMARK  130  A    between atoms: _348  and  _349
REMARK  131  A    between atoms: _348  and  _351
REMARK  132  A    between atoms: _351  and  _352
REMARK  133  A    between atoms: _358  and  _360
REMARK  134  A    between atoms: _360  and  _361
REMARK  135  A    between atoms: _360  and  _363
REMARK  136  A    between atoms: _363  and  _364
REMARK  137  A    between atoms: _369  and  _370
REMARK  138  A    between atoms: _372  and  _374
REMARK  139  A    between atoms: _374  and  _375
REMARK  140  A    between atoms: _374  and  _377
REMARK  141  A    between atoms: _377  and  _378
REMARK  142  A    between atoms: _384  and  _386
REMARK  143  A    between atoms: _386  and  _387
REMARK  144  A    between atoms: _386  and  _389
REMARK  145  A    between atoms: _389  and  _390
REMARK  146  A    between atoms: _390  and  _391
REMARK  147  A    between atoms: _391  and  _392
REMARK  148  A    between atoms: _401  and  _403
REMARK  149  A    between atoms: _403  and  _404
REMARK  150  A    between atoms: _403  and  _406
REMARK  151  A    between atoms: _406  and  _407
REMARK  152  A    between atoms: _410  and  _412
REMARK  153  A    between atoms: _412  and  _413
REMARK  154  A    between atoms: _415  and  _417
REMARK  155  A    between atoms: _417  and  _418
REMARK  156  A    between atoms: _421  and  _423
REMARK  157  A    between atoms: _423  and  _424
REMARK  158  A    between atoms: _423  and  _426
REMARK  159  A    between atoms: _426  and  _427
REMARK  160  A    between atoms: _433  and  _434
REMARK  161  A    between atoms: _439  and  _441
REMARK  162  A    between atoms: _441  and  _442
REMARK  163  A    between atoms: _444  and  _446
REMARK  164  A    between atoms: _446  and  _447
REMARK  165  A    between atoms: _446  and  _449
REMARK  166  A    between atoms: _449  and  _450
REMARK  167  A    between atoms: _456  and  _458
REMARK  168  A    between atoms: _458  and  _459
REMARK  169  A    between atoms: _458  and  _461
REMARK  170  A    between atoms: _461  and  _462
REMARK  171  A    between atoms: _467  and  _469
REMARK  172  A    between atoms: _469  and  _470
REMARK  173  A    between atoms: _469  and  _472
REMARK  174  A    between atoms: _472  and  _473
REMARK  175  A    between atoms: _473  and  _474
REMARK  176  A    between atoms: _474  and  _475
REMARK  177  A    between atoms: _475  and  ZN_601
REMARK  178  A    between atoms: _477  and  _479
REMARK  179  A    between atoms: _479  and  _480
REMARK  180  A    between atoms: _479  and  _482
REMARK  181  A    between atoms: _482  and  _483
REMARK  182  A    between atoms: _483  and  _484
REMARK  183  A    between atoms: _484  and  _485
REMARK  184  A    between atoms: _485  and  _486
REMARK  185  A    between atoms: _490  and  _492
REMARK  186  A    between atoms: _492  and  _493
REMARK  187  A    between atoms: _492  and  _495
REMARK  188  A    between atoms: _495  and  _496
REMARK  189  A    between atoms: _501  and  _502
REMARK  190  A    between atoms: _504  and  _506
REMARK  191  A    between atoms: _506  and  _507
REMARK  192  A    between atoms: _506  and  _509
REMARK  193  A    between atoms: _509  and  _510
REMARK  194  A    between atoms: _515  and  _517
REMARK  195  A    between atoms: _517  and  _518
REMARK  196  A    between atoms: _521  and  _523
REMARK  197  A    between atoms: _523  and  _524
REMARK  198  A    between atoms: _523  and  _526
REMARK  199  A    between atoms: _526  and  _527
REMARK  200  A    between atoms: _530  and  _532
REMARK  201  A    between atoms: _532  and  _533
REMARK  202  A    between atoms: _532  and  _535
REMARK  203  A    between atoms: _538  and  _540
REMARK  204  A    between atoms: _540  and  _541
REMARK  205  A    between atoms: _540  and  _543
REMARK  206  A    between atoms: _543  and  _544
REMARK  207  A    between atoms: _544  and  _545
REMARK  208  A    between atoms: _548  and  _550
REMARK  209  A    between atoms: _550  and  _551
REMARK  210  A    between atoms: _550  and  _553
REMARK  211  A    between atoms: _553  and  _554
REMARK  212  A    between atoms: _559  and  _560
REMARK  213  A    between atoms: _562  and  _564
REMARK  214  A    between atoms: _564  and  _565
REMARK  215  A    between atoms: _564  and  _567
REMARK  216  A    between atoms: _567  and  _568
REMARK  217  A    between atoms: _568  and  _569
REMARK  218  A    between atoms: _569  and  _570
REMARK  219  A    between atoms: _579  and  _581
REMARK  220  A    between atoms: _581  and  _582
REMARK  221  A    between atoms: _581  and  _584
REMARK  222  A    between atoms: _584  and  _585
REMARK  223  A    between atoms: _590  and  _591
REMARK  224  A    between atoms: _593  and  _595
REMARK  225  A    between atoms: _595  and  _596
REMARK  226  A    between atoms: _595  and  _598
REMARK  227  A    between atoms: _598  and  _599
REMARK                            x       y       z     vdW  Elec       q    Type
REMARK                         _______ _______ _______ _____ _____    ______ ____
ROOT
ATOM      1  O   HOH     1     -13.014  25.905 -17.627  0.00  0.00    +0.000 OA
ENDROOT
TORSDOF 0
REMARK  Name = ../refined-set-2016/2xhm/2xhm_pocket.pdb
REMARK  227 active torsions:
REMARK  status: ('A' for Active; 'I' for Inactive)
REMARK    1  A    between atoms: _1  and  _3
REMARK    2  A    between atoms: _3  and  _4
REMARK    3  A    between atoms: _3  and  _6
REMARK    4  A    between atoms: _6  and  _7
REMARK    5  A    between atoms: _10  and  _12
REMARK    6  A    between atoms: _12  and  _13
REMARK    7  A    between atoms: _12  and  _15
REMARK    8  A    between atoms: _15  and  _16
REMARK    9  A    between atoms: _16  and  _17
REMARK   10  A    between atoms: _20  and  _22
REMARK   11  A    between atoms: _22  and  _23
REMARK   12  A    between atoms: _22  and  _25
REMARK   13  A    between atoms: _25  and  _26
REMARK   14  A    between atoms: _29  and  _31
REMARK   15  A    between atoms: _31  and  _32
REMARK   16  A    between atoms: _31  and  _34
REMARK   17  A    between atoms: _34  and  _35
REMARK   18  A    between atoms: _35  and  _36
REMARK   19  A    between atoms: _39  and  _41
REMARK   20  A    between atoms: _41  and  _42
REMARK   21  A    between atoms: _45  and  _47
REMARK   22  A    between atoms: _47  and  _48
REMARK   23  A    between atoms: _51  and  _53
REMARK   24  A    between atoms: _53  and  _54
REMARK   25  A    between atoms: _53  and  _56
REMARK   26  A    between atoms: _56  and  _57
REMARK   27  A    between atoms: _67  and  _69
REMARK   28  A    between atoms: _69  and  _70
REMARK   29  A    between atoms: _69  and  _72
REMARK   30  A    between atoms: _72  and  _73
REMARK   31  A    between atoms: _73  and  _74
REMARK   32  A    between atoms: _74  and  _75
REMARK   33  A    between atoms: _75  and  _76
REMARK   34  A    between atoms: _80  and  _82
REMARK   35  A    between atoms: _82  and  _83
REMARK   36  A    between atoms: _82  and  _85
REMARK   37  A    between atoms: _85  and  _86
REMARK   38  A    between atoms: _88  and  _90
REMARK   39  A    between atoms: _90  and  _91
REMARK   40  A    between atoms: _90  and  _93
REMARK   41  A    between atoms: _93  and  _94
REMARK   42  A    between atoms: _94  and  _95
REMARK   43  A    between atoms: _98  and  _100
REMARK   44  A    between atoms: _100  and  _101
REMARK   45  A    between atoms: _100  and  _103
REMARK   46  A    between atoms: _103  and  _104
REMARK   47  A    between atoms: _104  and  _105
REMARK   48  A    between atoms: _110  and  _112
REMARK   49  A    between atoms: _112  and  _113
REMARK   50  A    between atoms: _112  and  _115
REMARK   51  A    between atoms: _118  and  _120
REMARK   52  A    between atoms: _120  and  _121
REMARK   53  A    between atoms: _120  and  _123
REMARK   54  A    between atoms: _123  and  _124
REMARK   55  A    between atoms: _129  and  _131
REMARK   56  A    between atoms: _131  and  _132
REMARK   57  A    between atoms: _135  and  _137
REMARK   58  A    between atoms: _137  and  _138
REMARK   59  A    between atoms: _137  and  _140
REMARK   60  A    between atoms: _140  and  _141
REMARK   61  A    between atoms: _143  and  _145
REMARK   62  A    between atoms: _145  and  _146
REMARK   63  A    between atoms: _149  and  _151
REMARK   64  A    between atoms: _151  and  _152
REMARK   65  A    between atoms: _151  and  _154
REMARK   66  A    between atoms: _154  and  _155
REMARK   67  A    between atoms: _165  and  _167
REMARK   68  A    between atoms: _167  and  _168
REMARK   69  A    between atoms: _167  and  _170
REMARK   70  A    between atoms: _170  and  _171
REMARK   71  A    between atoms: _174  and  _176
REMARK   72  A    between atoms: _176  and  _177
REMARK   73  A    between atoms: _176  and  _179
REMARK   74  A    between atoms: _179  and  _180
REMARK   75  A    between atoms: _186  and  _188
REMARK   76  A    between atoms: _188  and  _189
REMARK   77  A    between atoms: _188  and  _191
REMARK   78  A    between atoms: _191  and  _192
REMARK   79  A    between atoms: _197  and  _198
REMARK   80  A    between atoms: _200  and  _202
REMARK   81  A    between atoms: _202  and  _203
REMARK   82  A    between atoms: _202  and  _205
REMARK   83  A    between atoms: _205  and  _206
REMARK   84  A    between atoms: _209  and  _211
REMARK   85  A    between atoms: _211  and  _212
REMARK   86  A    between atoms: _211  and  _214
REMARK   87  A    between atoms: _217  and  _219
REMARK   88  A    between atoms: _219  and  _220
REMARK   89  A    between atoms: _219  and  _222
REMARK   90  A    between atoms: _222  and  _223
REMARK   91  A    between atoms: _223  and  _224
REMARK   92  A    between atoms: _224  and  _225
REMARK   93  A    between atoms: _234  and  _236
REMARK   94  A    between atoms: _236  and  _237
REMARK   95  A    between atoms: _236  and  _239
REMARK   96  A    between atoms: _239  and  _240
REMARK   97  A    between atoms: _243  and  _245
REMARK   98  A    between atoms: _245  and  _246
REMARK   99  A    between atoms: _245  and  _248
REMARK  100  A    between atoms: _248  and  _249
REMARK  101  A    between atoms: _249  and  _250
REMARK  102  A    between atoms: _250  and  _251
REMARK  103  A    between atoms: _251  and  _252
REMARK  104  A    between atoms: _256  and  _258
REMARK  105  A    between atoms: _258  and  _259
REMARK  106  A    between atoms: _258  and  _261
REMARK  107  A    between atoms: _261  and  _262
REMARK  108  A    between atoms: _262  and  _263
REMARK  109  A    between atoms: _268  and  _270
REMARK  110  A    between atoms: _270  and  _271
REMARK  111  A    between atoms: _270  and  _273
REMARK  112  A    between atoms: _273  and  _274
REMARK  113  A    between atoms: _277  and  _279
REMARK  114  A    between atoms: _290  and  _293
REMARK  115  A    between atoms: _293  and  _294
REMARK  116  A    between atoms: _294  and  _295
REMARK  117  A    between atoms: _300  and  _303
REMARK  118  A    between atoms: _303  and  _304
REMARK  119  A    between atoms: _314  and  _315
REMARK  120  A    between atoms: _323  and  _325
REMARK  121  A    between atoms: _325  and  _326
REMARK  122  A    between atoms: _325  and  _328
REMARK  123  A    between atoms: _328  and  _329
REMARK  124  A    between atoms: _332  and  _334
REMARK  125  A    between atoms: _334  and  _335
REMARK  126  A    between atoms: _334  and  _337
REMARK  127  A    between atoms: _337  and  _338
REMARK  128  A    between atoms: _343  and  _344
REMARK  129  A    between atoms: _346  and  _348
REMARK  130  A    between atoms: _348  and  _349
REMARK  131  A    between atoms: _348  and  _351
REMARK  132  A    between atoms: _351  and  _352
REMARK  133  A    between atoms: _358  and  _360
REMARK  134  A    between atoms: _360  and  _361
REMARK  135  A    between atoms: _360  and  _363
REMARK  136  A    between atoms: _363  and  _364
REMARK  137  A    between atoms: _369  and  _370
REMARK  138  A    between atoms: _372  and  _374
REMARK  139  A    between atoms: _374  and  _375
REMARK  140  A    between atoms: _374  and  _377
REMARK  141  A    between atoms: _377  and  _378
REMARK  142  A    between atoms: _384  and  _386
REMARK  143  A    between atoms: _386  and  _387
REMARK  144  A    between atoms: _386  and  _389
REMARK  145  A    between atoms: _389  and  _390
REMARK  146  A    between atoms: _390  and  _391
REMARK  147  A    between atoms: _391  and  _392
REMARK  148  A    between atoms: _401  and  _403
REMARK  149  A    between atoms: _403  and  _404
REMARK  150  A    between atoms: _403  and  _406
REMARK  151  A    between atoms: _406  and  _407
REMARK  152  A    between atoms: _410  and  _412
REMARK  153  A    between atoms: _412  and  _413
REMARK  154  A    between atoms: _415  and  _417
REMARK  155  A    between atoms: _417  and  _418
REMARK  156  A    between atoms: _421  and  _423
REMARK  157  A    between atoms: _423  and  _424
REMARK  158  A    between atoms: _423  and  _426
REMARK  159  A    between atoms: _426  and  _427
REMARK  160  A    between atoms: _433  and  _434
REMARK  161  A    between atoms: _439  and  _441
REMARK  162  A    between atoms: _441  and  _442
REMARK  163  A    between atoms: _444  and  _446
REMARK  164  A    between atoms: _446  and  _447
REMARK  165  A    between atoms: _446  and  _449
REMARK  166  A    between atoms: _449  and  _450
REMARK  167  A    between atoms: _456  and  _458
REMARK  168  A    between atoms: _458  and  _459
REMARK  169  A    between atoms: _458  and  _461
REMARK  170  A    between atoms: _461  and  _462
REMARK  171  A    between atoms: _467  and  _469
REMARK  172  A    between atoms: _469  and  _470
REMARK  173  A    between atoms: _469  and  _472
REMARK  174  A    between atoms: _472  and  _473
REMARK  175  A    between atoms: _473  and  _474
REMARK  176  A    between atoms: _474  and  _475
REMARK  177  A    between atoms: _475  and  ZN_601
REMARK  178  A    between atoms: _477  and  _479
REMARK  179  A    between atoms: _479  and  _480
REMARK  180  A    between atoms: _479  and  _482
REMARK  181  A    between atoms: _482  and  _483
REMARK  182  A    between atoms: _483  and  _484
REMARK  183  A    between atoms: _484  and  _485
REMARK  184  A    between atoms: _485  and  _486
REMARK  185  A    between atoms: _490  and  _492
REMARK  186  A    between atoms: _492  and  _493
REMARK  187  A    between atoms: _492  and  _495
REMARK  188  A    between atoms: _495  and  _496
REMARK  189  A    between atoms: _501  and  _502
REMARK  190  A    between atoms: _504  and  _506
REMARK  191  A    between atoms: _506  and  _507
REMARK  192  A    between atoms: _506  and  _509
REMARK  193  A    between atoms: _509  and  _510
REMARK  194  A    between atoms: _515  and  _517
REMARK  195  A    between atoms: _517  and  _518
REMARK  196  A    between atoms: _521  and  _523
REMARK  197  A    between atoms: _523  and  _524
REMARK  198  A    between atoms: _523  and  _526
REMARK  199  A    between atoms: _526  and  _527
REMARK  200  A    between atoms: _530  and  _532
REMARK  201  A    between atoms: _532  and  _533
REMARK  202  A    between atoms: _532  and  _535
REMARK  203  A    between atoms: _538  and  _540
REMARK  204  A    between atoms: _540  and  _541
REMARK  205  A    between atoms: _540  and  _543
REMARK  206  A    between atoms: _543  and  _544
REMARK  207  A    between atoms: _544  and  _545
REMARK  208  A    between atoms: _548  and  _550
REMARK  209  A    between atoms: _550  and  _551
REMARK  210  A    between atoms: _550  and  _553
REMARK  211  A    between atoms: _553  and  _554
REMARK  212  A    between atoms: _559  and  _560
REMARK  213  A    between atoms: _562  and  _564
REMARK  214  A    between atoms: _564  and  _565
REMARK  215  A    between atoms: _564  and  _567
REMARK  216  A    between atoms: _567  and  _568
REMARK  217  A    between atoms: _568  and  _569
REMARK  218  A    between atoms: _569  and  _570
REMARK  219  A    between atoms: _579  and  _581
REMARK  220  A    between atoms: _581  and  _582
REMARK  221  A    between atoms: _581  and  _584
REMARK  222  A    between atoms: _584  and  _585
REMARK  223  A    between atoms: _590  and  _591
REMARK  224  A    between atoms: _593  and  _595
REMARK  225  A    between atoms: _595  and  _596
REMARK  226  A    between atoms: _595  and  _598
REMARK  227  A    between atoms: _598  and  _599
REMARK                            x       y       z     vdW  Elec       q    Type
REMARK                         _______ _______ _______ _____ _____    ______ ____
ROOT
ATOM      1  O   HOH     1     -13.333  25.468 -13.593  0.00  0.00    +0.000 OA
ENDROOT
TORSDOF 0
REMARK  Name = ../refined-set-2016/2xhm/2xhm_pocket.pdb
REMARK  227 active torsions:
REMARK  status: ('A' for Active; 'I' for Inactive)
REMARK    1  A    between atoms: _1  and  _3
REMARK    2  A    between atoms: _3  and  _4
REMARK    3  A    between atoms: _3  and  _6
REMARK    4  A    between atoms: _6  and  _7
REMARK    5  A    between atoms: _10  and  _12
REMARK    6  A    between atoms: _12  and  _13
REMARK    7  A    between atoms: _12  and  _15
REMARK    8  A    between atoms: _15  and  _16
REMARK    9  A    between atoms: _16  and  _17
REMARK   10  A    between atoms: _20  and  _22
REMARK   11  A    between atoms: _22  and  _23
REMARK   12  A    between atoms: _22  and  _25
REMARK   13  A    between atoms: _25  and  _26
REMARK   14  A    between atoms: _29  and  _31
REMARK   15  A    between atoms: _31  and  _32
REMARK   16  A    between atoms: _31  and  _34
REMARK   17  A    between atoms: _34  and  _35
REMARK   18  A    between atoms: _35  and  _36
REMARK   19  A    between atoms: _39  and  _41
REMARK   20  A    between atoms: _41  and  _42
REMARK   21  A    between atoms: _45  and  _47
REMARK   22  A    between atoms: _47  and  _48
REMARK   23  A    between atoms: _51  and  _53
REMARK   24  A    between atoms: _53  and  _54
REMARK   25  A    between atoms: _53  and  _56
REMARK   26  A    between atoms: _56  and  _57
REMARK   27  A    between atoms: _67  and  _69
REMARK   28  A    between atoms: _69  and  _70
REMARK   29  A    between atoms: _69  and  _72
REMARK   30  A    between atoms: _72  and  _73
REMARK   31  A    between atoms: _73  and  _74
REMARK   32  A    between atoms: _74  and  _75
REMARK   33  A    between atoms: _75  and  _76
REMARK   34  A    between atoms: _80  and  _82
REMARK   35  A    between atoms: _82  and  _83
REMARK   36  A    between atoms: _82  and  _85
REMARK   37  A    between atoms: _85  and  _86
REMARK   38  A    between atoms: _88  and  _90
REMARK   39  A    between atoms: _90  and  _91
REMARK   40  A    between atoms: _90  and  _93
REMARK   41  A    between atoms: _93  and  _94
REMARK   42  A    between atoms: _94  and  _95
REMARK   43  A    between atoms: _98  and  _100
REMARK   44  A    between atoms: _100  and  _101
REMARK   45  A    between atoms: _100  and  _103
REMARK   46  A    between atoms: _103  and  _104
REMARK   47  A    between atoms: _104  and  _105
REMARK   48  A    between atoms: _110  and  _112
REMARK   49  A    between atoms: _112  and  _113
REMARK   50  A    between atoms: _112  and  _115
REMARK   51  A    between atoms: _118  and  _120
REMARK   52  A    between atoms: _120  and  _121
REMARK   53  A    between atoms: _120  and  _123
REMARK   54  A    between atoms: _123  and  _124
REMARK   55  A    between atoms: _129  and  _131
REMARK   56  A    between atoms: _131  and  _132
REMARK   57  A    between atoms: _135  and  _137
REMARK   58  A    between atoms: _137  and  _138
REMARK   59  A    between atoms: _137  and  _140
REMARK   60  A    between atoms: _140  and  _141
REMARK   61  A    between atoms: _143  and  _145
REMARK   62  A    between atoms: _145  and  _146
REMARK   63  A    between atoms: _149  and  _151
REMARK   64  A    between atoms: _151  and  _152
REMARK   65  A    between atoms: _151  and  _154
REMARK   66  A    between atoms: _154  and  _155
REMARK   67  A    between atoms: _165  and  _167
REMARK   68  A    between atoms: _167  and  _168
REMARK   69  A    between atoms: _167  and  _170
REMARK   70  A    between atoms: _170  and  _171
REMARK   71  A    between atoms: _174  and  _176
REMARK   72  A    between atoms: _176  and  _177
REMARK   73  A    between atoms: _176  and  _179
REMARK   74  A    between atoms: _179  and  _180
REMARK   75  A    between atoms: _186  and  _188
REMARK   76  A    between atoms: _188  and  _189
REMARK   77  A    between atoms: _188  and  _191
REMARK   78  A    between atoms: _191  and  _192
REMARK   79  A    between atoms: _197  and  _198
REMARK   80  A    between atoms: _200  and  _202
REMARK   81  A    between atoms: _202  and  _203
REMARK   82  A    between atoms: _202  and  _205
REMARK   83  A    between atoms: _205  and  _206
REMARK   84  A    between atoms: _209  and  _211
REMARK   85  A    between atoms: _211  and  _212
REMARK   86  A    between atoms: _211  and  _214
REMARK   87  A    between atoms: _217  and  _219
REMARK   88  A    between atoms: _219  and  _220
REMARK   89  A    between atoms: _219  and  _222
REMARK   90  A    between atoms: _222  and  _223
REMARK   91  A    between atoms: _223  and  _224
REMARK   92  A    between atoms: _224  and  _225
REMARK   93  A    between atoms: _234  and  _236
REMARK   94  A    between atoms: _236  and  _237
REMARK   95  A    between atoms: _236  and  _239
REMARK   96  A    between atoms: _239  and  _240
REMARK   97  A    between atoms: _243  and  _245
REMARK   98  A    between atoms: _245  and  _246
REMARK   99  A    between atoms: _245  and  _248
REMARK  100  A    between atoms: _248  and  _249
REMARK  101  A    between atoms: _249  and  _250
REMARK  102  A    between atoms: _250  and  _251
REMARK  103  A    between atoms: _251  and  _252
REMARK  104  A    between atoms: _256  and  _258
REMARK  105  A    between atoms: _258  and  _259
REMARK  106  A    between atoms: _258  and  _261
REMARK  107  A    between atoms: _261  and  _262
REMARK  108  A    between atoms: _262  and  _263
REMARK  109  A    between atoms: _268  and  _270
REMARK  110  A    between atoms: _270  and  _271
REMARK  111  A    between atoms: _270  and  _273
REMARK  112  A    between atoms: _273  and  _274
REMARK  113  A    between atoms: _277  and  _279
REMARK  114  A    between atoms: _290  and  _293
REMARK  115  A    between atoms: _293  and  _294
REMARK  116  A    between atoms: _294  and  _295
REMARK  117  A    between atoms: _300  and  _303
REMARK  118  A    between atoms: _303  and  _304
REMARK  119  A    between atoms: _314  and  _315
REMARK  120  A    between atoms: _323  and  _325
REMARK  121  A    between atoms: _325  and  _326
REMARK  122  A    between atoms: _325  and  _328
REMARK  123  A    between atoms: _328  and  _329
REMARK  124  A    between atoms: _332  and  _334
REMARK  125  A    between atoms: _334  and  _335
REMARK  126  A    between atoms: _334  and  _337
REMARK  127  A    between atoms: _337  and  _338
REMARK  128  A    between atoms: _343  and  _344
REMARK  129  A    between atoms: _346  and  _348
REMARK  130  A    between atoms: _348  and  _349
REMARK  131  A    between atoms: _348  and  _351
REMARK  132  A    between atoms: _351  and  _352
REMARK  133  A    between atoms: _358  and  _360
REMARK  134  A    between atoms: _360  and  _361
REMARK  135  A    between atoms: _360  and  _363
REMARK  136  A    between atoms: _363  and  _364
REMARK  137  A    between atoms: _369  and  _370
REMARK  138  A    between atoms: _372  and  _374
REMARK  139  A    between atoms: _374  and  _375
REMARK  140  A    between atoms: _374  and  _377
REMARK  141  A    between atoms: _377  and  _378
REMARK  142  A    between atoms: _384  and  _386
REMARK  143  A    between atoms: _386  and  _387
REMARK  144  A    between atoms: _386  and  _389
REMARK  145  A    between atoms: _389  and  _390
REMARK  146  A    between atoms: _390  and  _391
REMARK  147  A    between atoms: _391  and  _392
REMARK  148  A    between atoms: _401  and  _403
REMARK  149  A    between atoms: _403  and  _404
REMARK  150  A    between atoms: _403  and  _406
REMARK  151  A    between atoms: _406  and  _407
REMARK  152  A    between atoms: _410  and  _412
REMARK  153  A    between atoms: _412  and  _413
REMARK  154  A    between atoms: _415  and  _417
REMARK  155  A    between atoms: _417  and  _418
REMARK  156  A    between atoms: _421  and  _423
REMARK  157  A    between atoms: _423  and  _424
REMARK  158  A    between atoms: _423  and  _426
REMARK  159  A    between atoms: _426  and  _427
REMARK  160  A    between atoms: _433  and  _434
REMARK  161  A    between atoms: _439  and  _441
REMARK  162  A    between atoms: _441  and  _442
REMARK  163  A    between atoms: _444  and  _446
REMARK  164  A    between atoms: _446  and  _447
REMARK  165  A    between atoms: _446  and  _449
REMARK  166  A    between atoms: _449  and  _450
REMARK  167  A    between atoms: _456  and  _458
REMARK  168  A    between atoms: _458  and  _459
REMARK  169  A    between atoms: _458  and  _461
REMARK  170  A    between atoms: _461  and  _462
REMARK  171  A    between atoms: _467  and  _469
REMARK  172  A    between atoms: _469  and  _470
REMARK  173  A    between atoms: _469  and  _472
REMARK  174  A    between atoms: _472  and  _473
REMARK  175  A    between atoms: _473  and  _474
REMARK  176  A    between atoms: _474  and  _475
REMARK  177  A    between atoms: _475  and  ZN_601
REMARK  178  A    between atoms: _477  and  _479
REMARK  179  A    between atoms: _479  and  _480
REMARK  180  A    between atoms: _479  and  _482
REMARK  181  A    between atoms: _482  and  _483
REMARK  182  A    between atoms: _483  and  _484
REMARK  183  A    between atoms: _484  and  _485
REMARK  184  A    between atoms: _485  and  _486
REMARK  185  A    between atoms: _490  and  _492
REMARK  186  A    between atoms: _492  and  _493
REMARK  187  A    between atoms: _492  and  _495
REMARK  188  A    between atoms: _495  and  _496
REMARK  189  A    between atoms: _501  and  _502
REMARK  190  A    between atoms: _504  and  _506
REMARK  191  A    between atoms: _506  and  _507
REMARK  192  A    between atoms: _506  and  _509
REMARK  193  A    between atoms: _509  and  _510
REMARK  194  A    between atoms: _515  and  _517
REMARK  195  A    between atoms: _517  and  _518
REMARK  196  A    between atoms: _521  and  _523
REMARK  197  A    between atoms: _523  and  _524
REMARK  198  A    between atoms: _523  and  _526
REMARK  199  A    between atoms: _526  and  _527
REMARK  200  A    between atoms: _530  and  _532
REMARK  201  A    between atoms: _532  and  _533
REMARK  202  A    between atoms: _532  and  _535
REMARK  203  A    between atoms: _538  and  _540
REMARK  204  A    between atoms: _540  and  _541
REMARK  205  A    between atoms: _540  and  _543
REMARK  206  A    between atoms: _543  and  _544
REMARK  207  A    between atoms: _544  and  _545
REMARK  208  A    between atoms: _548  and  _550
REMARK  209  A    between atoms: _550  and  _551
REMARK  210  A    between atoms: _550  and  _553
REMARK  211  A    between atoms: _553  and  _554
REMARK  212  A    between atoms: _559  and  _560
REMARK  213  A    between atoms: _562  and  _564
REMARK  214  A    between atoms: _564  and  _565
REMARK  215  A    between atoms: _564  and  _567
REMARK  216  A    between atoms: _567  and  _568
REMARK  217  A    between atoms: _568  and  _569
REMARK  218  A    between atoms: _569  and  _570
REMARK  219  A    between atoms: _579  and  _581
REMARK  220  A    between atoms: _581  and  _582
REMARK  221  A    between atoms: _581  and  _584
REMARK  222  A    between atoms: _584  and  _585
REMARK  223  A    between atoms: _590  and  _591
REMARK  224  A    between atoms: _593  and  _595
REMARK  225  A    between atoms: _595  and  _596
REMARK  226  A    between atoms: _595  and  _598
REMARK  227  A    between atoms: _598  and  _599
REMARK                            x       y       z     vdW  Elec       q    Type
REMARK                         _______ _______ _______ _____ _____    ______ ____
ROOT
ATOM      1  O   HOH     1      -6.264  33.593  -9.563  0.00  0.00    +0.000 OA
ENDROOT
TORSDOF 0
REMARK  Name = ../refined-set-2016/2xhm/2xhm_pocket.pdb
REMARK  227 active torsions:
REMARK  status: ('A' for Active; 'I' for Inactive)
REMARK    1  A    between atoms: _1  and  _3
REMARK    2  A    between atoms: _3  and  _4
REMARK    3  A    between atoms: _3  and  _6
REMARK    4  A    between atoms: _6  and  _7
REMARK    5  A    between atoms: _10  and  _12
REMARK    6  A    between atoms: _12  and  _13
REMARK    7  A    between atoms: _12  and  _15
REMARK    8  A    between atoms: _15  and  _16
REMARK    9  A    between atoms: _16  and  _17
REMARK   10  A    between atoms: _20  and  _22
REMARK   11  A    between atoms: _22  and  _23
REMARK   12  A    between atoms: _22  and  _25
REMARK   13  A    between atoms: _25  and  _26
REMARK   14  A    between atoms: _29  and  _31
REMARK   15  A    between atoms: _31  and  _32
REMARK   16  A    between atoms: _31  and  _34
REMARK   17  A    between atoms: _34  and  _35
REMARK   18  A    between atoms: _35  and  _36
REMARK   19  A    between atoms: _39  and  _41
REMARK   20  A    between atoms: _41  and  _42
REMARK   21  A    between atoms: _45  and  _47
REMARK   22  A    between atoms: _47  and  _48
REMARK   23  A    between atoms: _51  and  _53
REMARK   24  A    between atoms: _53  and  _54
REMARK   25  A    between atoms: _53  and  _56
REMARK   26  A    between atoms: _56  and  _57
REMARK   27  A    between atoms: _67  and  _69
REMARK   28  A    between atoms: _69  and  _70
REMARK   29  A    between atoms: _69  and  _72
REMARK   30  A    between atoms: _72  and  _73
REMARK   31  A    between atoms: _73  and  _74
REMARK   32  A    between atoms: _74  and  _75
REMARK   33  A    between atoms: _75  and  _76
REMARK   34  A    between atoms: _80  and  _82
REMARK   35  A    between atoms: _82  and  _83
REMARK   36  A    between atoms: _82  and  _85
REMARK   37  A    between atoms: _85  and  _86
REMARK   38  A    between atoms: _88  and  _90
REMARK   39  A    between atoms: _90  and  _91
REMARK   40  A    between atoms: _90  and  _93
REMARK   41  A    between atoms: _93  and  _94
REMARK   42  A    between atoms: _94  and  _95
REMARK   43  A    between atoms: _98  and  _100
REMARK   44  A    between atoms: _100  and  _101
REMARK   45  A    between atoms: _100  and  _103
REMARK   46  A    between atoms: _103  and  _104
REMARK   47  A    between atoms: _104  and  _105
REMARK   48  A    between atoms: _110  and  _112
REMARK   49  A    between atoms: _112  and  _113
REMARK   50  A    between atoms: _112  and  _115
REMARK   51  A    between atoms: _118  and  _120
REMARK   52  A    between atoms: _120  and  _121
REMARK   53  A    between atoms: _120  and  _123
REMARK   54  A    between atoms: _123  and  _124
REMARK   55  A    between atoms: _129  and  _131
REMARK   56  A    between atoms: _131  and  _132
REMARK   57  A    between atoms: _135  and  _137
REMARK   58  A    between atoms: _137  and  _138
REMARK   59  A    between atoms: _137  and  _140
REMARK   60  A    between atoms: _140  and  _141
REMARK   61  A    between atoms: _143  and  _145
REMARK   62  A    between atoms: _145  and  _146
REMARK   63  A    between atoms: _149  and  _151
REMARK   64  A    between atoms: _151  and  _152
REMARK   65  A    between atoms: _151  and  _154
REMARK   66  A    between atoms: _154  and  _155
REMARK   67  A    between atoms: _165  and  _167
REMARK   68  A    between atoms: _167  and  _168
REMARK   69  A    between atoms: _167  and  _170
REMARK   70  A    between atoms: _170  and  _171
REMARK   71  A    between atoms: _174  and  _176
REMARK   72  A    between atoms: _176  and  _177
REMARK   73  A    between atoms: _176  and  _179
REMARK   74  A    between atoms: _179  and  _180
REMARK   75  A    between atoms: _186  and  _188
REMARK   76  A    between atoms: _188  and  _189
REMARK   77  A    between atoms: _188  and  _191
REMARK   78  A    between atoms: _191  and  _192
REMARK   79  A    between atoms: _197  and  _198
REMARK   80  A    between atoms: _200  and  _202
REMARK   81  A    between atoms: _202  and  _203
REMARK   82  A    between atoms: _202  and  _205
REMARK   83  A    between atoms: _205  and  _206
REMARK   84  A    between atoms: _209  and  _211
REMARK   85  A    between atoms: _211  and  _212
REMARK   86  A    between atoms: _211  and  _214
REMARK   87  A    between atoms: _217  and  _219
REMARK   88  A    between atoms: _219  and  _220
REMARK   89  A    between atoms: _219  and  _222
REMARK   90  A    between atoms: _222  and  _223
REMARK   91  A    between atoms: _223  and  _224
REMARK   92  A    between atoms: _224  and  _225
REMARK   93  A    between atoms: _234  and  _236
REMARK   94  A    between atoms: _236  and  _237
REMARK   95  A    between atoms: _236  and  _239
REMARK   96  A    between atoms: _239  and  _240
REMARK   97  A    between atoms: _243  and  _245
REMARK   98  A    between atoms: _245  and  _246
REMARK   99  A    between atoms: _245  and  _248
REMARK  100  A    between atoms: _248  and  _249
REMARK  101  A    between atoms: _249  and  _250
REMARK  102  A    between atoms: _250  and  _251
REMARK  103  A    between atoms: _251  and  _252
REMARK  104  A    between atoms: _256  and  _258
REMARK  105  A    between atoms: _258  and  _259
REMARK  106  A    between atoms: _258  and  _261
REMARK  107  A    between atoms: _261  and  _262
REMARK  108  A    between atoms: _262  and  _263
REMARK  109  A    between atoms: _268  and  _270
REMARK  110  A    between atoms: _270  and  _271
REMARK  111  A    between atoms: _270  and  _273
REMARK  112  A    between atoms: _273  and  _274
REMARK  113  A    between atoms: _277  and  _279
REMARK  114  A    between atoms: _290  and  _293
REMARK  115  A    between atoms: _293  and  _294
REMARK  116  A    between atoms: _294  and  _295
REMARK  117  A    between atoms: _300  and  _303
REMARK  118  A    between atoms: _303  and  _304
REMARK  119  A    between atoms: _314  and  _315
REMARK  120  A    between atoms: _323  and  _325
REMARK  121  A    between atoms: _325  and  _326
REMARK  122  A    between atoms: _325  and  _328
REMARK  123  A    between atoms: _328  and  _329
REMARK  124  A    between atoms: _332  and  _334
REMARK  125  A    between atoms: _334  and  _335
REMARK  126  A    between atoms: _334  and  _337
REMARK  127  A    between atoms: _337  and  _338
REMARK  128  A    between atoms: _343  and  _344
REMARK  129  A    between atoms: _346  and  _348
REMARK  130  A    between atoms: _348  and  _349
REMARK  131  A    between atoms: _348  and  _351
REMARK  132  A    between atoms: _351  and  _352
REMARK  133  A    between atoms: _358  and  _360
REMARK  134  A    between atoms: _360  and  _361
REMARK  135  A    between atoms: _360  and  _363
REMARK  136  A    between atoms: _363  and  _364
REMARK  137  A    between atoms: _369  and  _370
REMARK  138  A    between atoms: _372  and  _374
REMARK  139  A    between atoms: _374  and  _375
REMARK  140  A    between atoms: _374  and  _377
REMARK  141  A    between atoms: _377  and  _378
REMARK  142  A    between atoms: _384  and  _386
REMARK  143  A    between atoms: _386  and  _387
REMARK  144  A    between atoms: _386  and  _389
REMARK  145  A    between atoms: _389  and  _390
REMARK  146  A    between atoms: _390  and  _391
REMARK  147  A    between atoms: _391  and  _392
REMARK  148  A    between atoms: _401  and  _403
REMARK  149  A    between atoms: _403  and  _404
REMARK  150  A    between atoms: _403  and  _406
REMARK  151  A    between atoms: _406  and  _407
REMARK  152  A    between atoms: _410  and  _412
REMARK  153  A    between atoms: _412  and  _413
REMARK  154  A    between atoms: _415  and  _417
REMARK  155  A    between atoms: _417  and  _418
REMARK  156  A    between atoms: _421  and  _423
REMARK  157  A    between atoms: _423  and  _424
REMARK  158  A    between atoms: _423  and  _426
REMARK  159  A    between atoms: _426  and  _427
REMARK  160  A    between atoms: _433  and  _434
REMARK  161  A    between atoms: _439  and  _441
REMARK  162  A    between atoms: _441  and  _442
REMARK  163  A    between atoms: _444  and  _446
REMARK  164  A    between atoms: _446  and  _447
REMARK  165  A    between atoms: _446  and  _449
REMARK  166  A    between atoms: _449  and  _450
REMARK  167  A    between atoms: _456  and  _458
REMARK  168  A    between atoms: _458  and  _459
REMARK  169  A    between atoms: _458  and  _461
REMARK  170  A    between atoms: _461  and  _462
REMARK  171  A    between atoms: _467  and  _469
REMARK  172  A    between atoms: _469  and  _470
REMARK  173  A    between atoms: _469  and  _472
REMARK  174  A    between atoms: _472  and  _473
REMARK  175  A    between atoms: _473  and  _474
REMARK  176  A    between atoms: _474  and  _475
REMARK  177  A    between atoms: _475  and  ZN_601
REMARK  178  A    between atoms: _477  and  _479
REMARK  179  A    between atoms: _479  and  _480
REMARK  180  A    between atoms: _479  and  _482
REMARK  181  A    between atoms: _482  and  _483
REMARK  182  A    between atoms: _483  and  _484
REMARK  183  A    between atoms: _484  and  _485
REMARK  184  A    between atoms: _485  and  _486
REMARK  185  A    between atoms: _490  and  _492
REMARK  186  A    between atoms: _492  and  _493
REMARK  187  A    between atoms: _492  and  _495
REMARK  188  A    between atoms: _495  and  _496
REMARK  189  A    between atoms: _501  and  _502
REMARK  190  A    between atoms: _504  and  _506
REMARK  191  A    between atoms: _506  and  _507
REMARK  192  A    between atoms: _506  and  _509
REMARK  193  A    between atoms: _509  and  _510
REMARK  194  A    between atoms: _515  and  _517
REMARK  195  A    between atoms: _517  and  _518
REMARK  196  A    between atoms: _521  and  _523
REMARK  197  A    between atoms: _523  and  _524
REMARK  198  A    between atoms: _523  and  _526
REMARK  199  A    between atoms: _526  and  _527
REMARK  200  A    between atoms: _530  and  _532
REMARK  201  A    between atoms: _532  and  _533
REMARK  202  A    between atoms: _532  and  _535
REMARK  203  A    between atoms: _538  and  _540
REMARK  204  A    between atoms: _540  and  _541
REMARK  205  A    between atoms: _540  and  _543
REMARK  206  A    between atoms: _543  and  _544
REMARK  207  A    between atoms: _544  and  _545
REMARK  208  A    between atoms: _548  and  _550
REMARK  209  A    between atoms: _550  and  _551
REMARK  210  A    between atoms: _550  and  _553
REMARK  211  A    between atoms: _553  and  _554
REMARK  212  A    between atoms: _559  and  _560
REMARK  213  A    between atoms: _562  and  _564
REMARK  214  A    between atoms: _564  and  _565
REMARK  215  A    between atoms: _564  and  _567
REMARK  216  A    between atoms: _567  and  _568
REMARK  217  A    between atoms: _568  and  _569
REMARK  218  A    between atoms: _569  and  _570
REMARK  219  A    between atoms: _579  and  _581
REMARK  220  A    between atoms: _581  and  _582
REMARK  221  A    between atoms: _581  and  _584
REMARK  222  A    between atoms: _584  and  _585
REMARK  223  A    between atoms: _590  and  _591
REMARK  224  A    between atoms: _593  and  _595
REMARK  225  A    between atoms: _595  and  _596
REMARK  226  A    between atoms: _595  and  _598
REMARK  227  A    between atoms: _598  and  _599
REMARK                            x       y       z     vdW  Elec       q    Type
REMARK                         _______ _______ _______ _____ _____    ______ ____
ROOT
ATOM      1  O   HOH     1      -7.851  31.183  -9.710  0.00  0.00    +0.000 OA
ENDROOT
TORSDOF 0
REMARK  Name = ../refined-set-2016/2xhm/2xhm_pocket.pdb
REMARK  227 active torsions:
REMARK  status: ('A' for Active; 'I' for Inactive)
REMARK    1  A    between atoms: _1  and  _3
REMARK    2  A    between atoms: _3  and  _4
REMARK    3  A    between atoms: _3  and  _6
REMARK    4  A    between atoms: _6  and  _7
REMARK    5  A    between atoms: _10  and  _12
REMARK    6  A    between atoms: _12  and  _13
REMARK    7  A    between atoms: _12  and  _15
REMARK    8  A    between atoms: _15  and  _16
REMARK    9  A    between atoms: _16  and  _17
REMARK   10  A    between atoms: _20  and  _22
REMARK   11  A    between atoms: _22  and  _23
REMARK   12  A    between atoms: _22  and  _25
REMARK   13  A    between atoms: _25  and  _26
REMARK   14  A    between atoms: _29  and  _31
REMARK   15  A    between atoms: _31  and  _32
REMARK   16  A    between atoms: _31  and  _34
REMARK   17  A    between atoms: _34  and  _35
REMARK   18  A    between atoms: _35  and  _36
REMARK   19  A    between atoms: _39  and  _41
REMARK   20  A    between atoms: _41  and  _42
REMARK   21  A    between atoms: _45  and  _47
REMARK   22  A    between atoms: _47  and  _48
REMARK   23  A    between atoms: _51  and  _53
REMARK   24  A    between atoms: _53  and  _54
REMARK   25  A    between atoms: _53  and  _56
REMARK   26  A    between atoms: _56  and  _57
REMARK   27  A    between atoms: _67  and  _69
REMARK   28  A    between atoms: _69  and  _70
REMARK   29  A    between atoms: _69  and  _72
REMARK   30  A    between atoms: _72  and  _73
REMARK   31  A    between atoms: _73  and  _74
REMARK   32  A    between atoms: _74  and  _75
REMARK   33  A    between atoms: _75  and  _76
REMARK   34  A    between atoms: _80  and  _82
REMARK   35  A    between atoms: _82  and  _83
REMARK   36  A    between atoms: _82  and  _85
REMARK   37  A    between atoms: _85  and  _86
REMARK   38  A    between atoms: _88  and  _90
REMARK   39  A    between atoms: _90  and  _91
REMARK   40  A    between atoms: _90  and  _93
REMARK   41  A    between atoms: _93  and  _94
REMARK   42  A    between atoms: _94  and  _95
REMARK   43  A    between atoms: _98  and  _100
REMARK   44  A    between atoms: _100  and  _101
REMARK   45  A    between atoms: _100  and  _103
REMARK   46  A    between atoms: _103  and  _104
REMARK   47  A    between atoms: _104  and  _105
REMARK   48  A    between atoms: _110  and  _112
REMARK   49  A    between atoms: _112  and  _113
REMARK   50  A    between atoms: _112  and  _115
REMARK   51  A    between atoms: _118  and  _120
REMARK   52  A    between atoms: _120  and  _121
REMARK   53  A    between atoms: _120  and  _123
REMARK   54  A    between atoms: _123  and  _124
REMARK   55  A    between atoms: _129  and  _131
REMARK   56  A    between atoms: _131  and  _132
REMARK   57  A    between atoms: _135  and  _137
REMARK   58  A    between atoms: _137  and  _138
REMARK   59  A    between atoms: _137  and  _140
REMARK   60  A    between atoms: _140  and  _141
REMARK   61  A    between atoms: _143  and  _145
REMARK   62  A    between atoms: _145  and  _146
REMARK   63  A    between atoms: _149  and  _151
REMARK   64  A    between atoms: _151  and  _152
REMARK   65  A    between atoms: _151  and  _154
REMARK   66  A    between atoms: _154  and  _155
REMARK   67  A    between atoms: _165  and  _167
REMARK   68  A    between atoms: _167  and  _168
REMARK   69  A    between atoms: _167  and  _170
REMARK   70  A    between atoms: _170  and  _171
REMARK   71  A    between atoms: _174  and  _176
REMARK   72  A    between atoms: _176  and  _177
REMARK   73  A    between atoms: _176  and  _179
REMARK   74  A    between atoms: _179  and  _180
REMARK   75  A    between atoms: _186  and  _188
REMARK   76  A    between atoms: _188  and  _189
REMARK   77  A    between atoms: _188  and  _191
REMARK   78  A    between atoms: _191  and  _192
REMARK   79  A    between atoms: _197  and  _198
REMARK   80  A    between atoms: _200  and  _202
REMARK   81  A    between atoms: _202  and  _203
REMARK   82  A    between atoms: _202  and  _205
REMARK   83  A    between atoms: _205  and  _206
REMARK   84  A    between atoms: _209  and  _211
REMARK   85  A    between atoms: _211  and  _212
REMARK   86  A    between atoms: _211  and  _214
REMARK   87  A    between atoms: _217  and  _219
REMARK   88  A    between atoms: _219  and  _220
REMARK   89  A    between atoms: _219  and  _222
REMARK   90  A    between atoms: _222  and  _223
REMARK   91  A    between atoms: _223  and  _224
REMARK   92  A    between atoms: _224  and  _225
REMARK   93  A    between atoms: _234  and  _236
REMARK   94  A    between atoms: _236  and  _237
REMARK   95  A    between atoms: _236  and  _239
REMARK   96  A    between atoms: _239  and  _240
REMARK   97  A    between atoms: _243  and  _245
REMARK   98  A    between atoms: _245  and  _246
REMARK   99  A    between atoms: _245  and  _248
REMARK  100  A    between atoms: _248  and  _249
REMARK  101  A    between atoms: _249  and  _250
REMARK  102  A    between atoms: _250  and  _251
REMARK  103  A    between atoms: _251  and  _252
REMARK  104  A    between atoms: _256  and  _258
REMARK  105  A    between atoms: _258  and  _259
REMARK  106  A    between atoms: _258  and  _261
REMARK  107  A    between atoms: _261  and  _262
REMARK  108  A    between atoms: _262  and  _263
REMARK  109  A    between atoms: _268  and  _270
REMARK  110  A    between atoms: _270  and  _271
REMARK  111  A    between atoms: _270  and  _273
REMARK  112  A    between atoms: _273  and  _274
REMARK  113  A    between atoms: _277  and  _279
REMARK  114  A    between atoms: _290  and  _293
REMARK  115  A    between atoms: _293  and  _294
REMARK  116  A    between atoms: _294  and  _295
REMARK  117  A    between atoms: _300  and  _303
REMARK  118  A    between atoms: _303  and  _304
REMARK  119  A    between atoms: _314  and  _315
REMARK  120  A    between atoms: _323  and  _325
REMARK  121  A    between atoms: _325  and  _326
REMARK  122  A    between atoms: _325  and  _328
REMARK  123  A    between atoms: _328  and  _329
REMARK  124  A    between atoms: _332  and  _334
REMARK  125  A    between atoms: _334  and  _335
REMARK  126  A    between atoms: _334  and  _337
REMARK  127  A    between atoms: _337  and  _338
REMARK  128  A    between atoms: _343  and  _344
REMARK  129  A    between atoms: _346  and  _348
REMARK  130  A    between atoms: _348  and  _349
REMARK  131  A    between atoms: _348  and  _351
REMARK  132  A    between atoms: _351  and  _352
REMARK  133  A    between atoms: _358  and  _360
REMARK  134  A    between atoms: _360  and  _361
REMARK  135  A    between atoms: _360  and  _363
REMARK  136  A    between atoms: _363  and  _364
REMARK  137  A    between atoms: _369  and  _370
REMARK  138  A    between atoms: _372  and  _374
REMARK  139  A    between atoms: _374  and  _375
REMARK  140  A    between atoms: _374  and  _377
REMARK  141  A    between atoms: _377  and  _378
REMARK  142  A    between atoms: _384  and  _386
REMARK  143  A    between atoms: _386  and  _387
REMARK  144  A    between atoms: _386  and  _389
REMARK  145  A    between atoms: _389  and  _390
REMARK  146  A    between atoms: _390  and  _391
REMARK  147  A    between atoms: _391  and  _392
REMARK  148  A    between atoms: _401  and  _403
REMARK  149  A    between atoms: _403  and  _404
REMARK  150  A    between atoms: _403  and  _406
REMARK  151  A    between atoms: _406  and  _407
REMARK  152  A    between atoms: _410  and  _412
REMARK  153  A    between atoms: _412  and  _413
REMARK  154  A    between atoms: _415  and  _417
REMARK  155  A    between atoms: _417  and  _418
REMARK  156  A    between atoms: _421  and  _423
REMARK  157  A    between atoms: _423  and  _424
REMARK  158  A    between atoms: _423  and  _426
REMARK  159  A    between atoms: _426  and  _427
REMARK  160  A    between atoms: _433  and  _434
REMARK  161  A    between atoms: _439  and  _441
REMARK  162  A    between atoms: _441  and  _442
REMARK  163  A    between atoms: _444  and  _446
REMARK  164  A    between atoms: _446  and  _447
REMARK  165  A    between atoms: _446  and  _449
REMARK  166  A    between atoms: _449  and  _450
REMARK  167  A    between atoms: _456  and  _458
REMARK  168  A    between atoms: _458  and  _459
REMARK  169  A    between atoms: _458  and  _461
REMARK  170  A    between atoms: _461  and  _462
REMARK  171  A    between atoms: _467  and  _469
REMARK  172  A    between atoms: _469  and  _470
REMARK  173  A    between atoms: _469  and  _472
REMARK  174  A    between atoms: _472  and  _473
REMARK  175  A    between atoms: _473  and  _474
REMARK  176  A    between atoms: _474  and  _475
REMARK  177  A    between atoms: _475  and  ZN_601
REMARK  178  A    between atoms: _477  and  _479
REMARK  179  A    between atoms: _479  and  _480
REMARK  180  A    between atoms: _479  and  _482
REMARK  181  A    between atoms: _482  and  _483
REMARK  182  A    between atoms: _483  and  _484
REMARK  183  A    between atoms: _484  and  _485
REMARK  184  A    between atoms: _485  and  _486
REMARK  185  A    between atoms: _490  and  _492
REMARK  186  A    between atoms: _492  and  _493
REMARK  187  A    between atoms: _492  and  _495
REMARK  188  A    between atoms: _495  and  _496
REMARK  189  A    between atoms: _501  and  _502
REMARK  190  A    between atoms: _504  and  _506
REMARK  191  A    between atoms: _506  and  _507
REMARK  192  A    between atoms: _506  and  _509
REMARK  193  A    between atoms: _509  and  _510
REMARK  194  A    between atoms: _515  and  _517
REMARK  195  A    between atoms: _517  and  _518
REMARK  196  A    between atoms: _521  and  _523
REMARK  197  A    between atoms: _523  and  _524
REMARK  198  A    between atoms: _523  and  _526
REMARK  199  A    between atoms: _526  and  _527
REMARK  200  A    between atoms: _530  and  _532
REMARK  201  A    between atoms: _532  and  _533
REMARK  202  A    between atoms: _532  and  _535
REMARK  203  A    between atoms: _538  and  _540
REMARK  204  A    between atoms: _540  and  _541
REMARK  205  A    between atoms: _540  and  _543
REMARK  206  A    between atoms: _543  and  _544
REMARK  207  A    between atoms: _544  and  _545
REMARK  208  A    between atoms: _548  and  _550
REMARK  209  A    between atoms: _550  and  _551
REMARK  210  A    between atoms: _550  and  _553
REMARK  211  A    between atoms: _553  and  _554
REMARK  212  A    between atoms: _559  and  _560
REMARK  213  A    between atoms: _562  and  _564
REMARK  214  A    between atoms: _564  and  _565
REMARK  215  A    between atoms: _564  and  _567
REMARK  216  A    between atoms: _567  and  _568
REMARK  217  A    between atoms: _568  and  _569
REMARK  218  A    between atoms: _569  and  _570
REMARK  219  A    between atoms: _579  and  _581
REMARK  220  A    between atoms: _581  and  _582
REMARK  221  A    between atoms: _581  and  _584
REMARK  222  A    between atoms: _584  and  _585
REMARK  223  A    between atoms: _590  and  _591
REMARK  224  A    between atoms: _593  and  _595
REMARK  225  A    between atoms: _595  and  _596
REMARK  226  A    between atoms: _595  and  _598
REMARK  227  A    between atoms: _598  and  _599
REMARK                            x       y       z     vdW  Elec       q    Type
REMARK                         _______ _______ _______ _____ _____    ______ ____
ROOT
ATOM      1  O   HOH     1     -10.199  32.571 -13.537  0.00  0.00    +0.000 OA
ENDROOT
TORSDOF 0
REMARK  Name = ../refined-set-2016/2xhm/2xhm_pocket.pdb
REMARK  227 active torsions:
REMARK  status: ('A' for Active; 'I' for Inactive)
REMARK    1  A    between atoms: _1  and  _3
REMARK    2  A    between atoms: _3  and  _4
REMARK    3  A    between atoms: _3  and  _6
REMARK    4  A    between atoms: _6  and  _7
REMARK    5  A    between atoms: _10  and  _12
REMARK    6  A    between atoms: _12  and  _13
REMARK    7  A    between atoms: _12  and  _15
REMARK    8  A    between atoms: _15  and  _16
REMARK    9  A    between atoms: _16  and  _17
REMARK   10  A    between atoms: _20  and  _22
REMARK   11  A    between atoms: _22  and  _23
REMARK   12  A    between atoms: _22  and  _25
REMARK   13  A    between atoms: _25  and  _26
REMARK   14  A    between atoms: _29  and  _31
REMARK   15  A    between atoms: _31  and  _32
REMARK   16  A    between atoms: _31  and  _34
REMARK   17  A    between atoms: _34  and  _35
REMARK   18  A    between atoms: _35  and  _36
REMARK   19  A    between atoms: _39  and  _41
REMARK   20  A    between atoms: _41  and  _42
REMARK   21  A    between atoms: _45  and  _47
REMARK   22  A    between atoms: _47  and  _48
REMARK   23  A    between atoms: _51  and  _53
REMARK   24  A    between atoms: _53  and  _54
REMARK   25  A    between atoms: _53  and  _56
REMARK   26  A    between atoms: _56  and  _57
REMARK   27  A    between atoms: _67  and  _69
REMARK   28  A    between atoms: _69  and  _70
REMARK   29  A    between atoms: _69  and  _72
REMARK   30  A    between atoms: _72  and  _73
REMARK   31  A    between atoms: _73  and  _74
REMARK   32  A    between atoms: _74  and  _75
REMARK   33  A    between atoms: _75  and  _76
REMARK   34  A    between atoms: _80  and  _82
REMARK   35  A    between atoms: _82  and  _83
REMARK   36  A    between atoms: _82  and  _85
REMARK   37  A    between atoms: _85  and  _86
REMARK   38  A    between atoms: _88  and  _90
REMARK   39  A    between atoms: _90  and  _91
REMARK   40  A    between atoms: _90  and  _93
REMARK   41  A    between atoms: _93  and  _94
REMARK   42  A    between atoms: _94  and  _95
REMARK   43  A    between atoms: _98  and  _100
REMARK   44  A    between atoms: _100  and  _101
REMARK   45  A    between atoms: _100  and  _103
REMARK   46  A    between atoms: _103  and  _104
REMARK   47  A    between atoms: _104  and  _105
REMARK   48  A    between atoms: _110  and  _112
REMARK   49  A    between atoms: _112  and  _113
REMARK   50  A    between atoms: _112  and  _115
REMARK   51  A    between atoms: _118  and  _120
REMARK   52  A    between atoms: _120  and  _121
REMARK   53  A    between atoms: _120  and  _123
REMARK   54  A    between atoms: _123  and  _124
REMARK   55  A    between atoms: _129  and  _131
REMARK   56  A    between atoms: _131  and  _132
REMARK   57  A    between atoms: _135  and  _137
REMARK   58  A    between atoms: _137  and  _138
REMARK   59  A    between atoms: _137  and  _140
REMARK   60  A    between atoms: _140  and  _141
REMARK   61  A    between atoms: _143  and  _145
REMARK   62  A    between atoms: _145  and  _146
REMARK   63  A    between atoms: _149  and  _151
REMARK   64  A    between atoms: _151  and  _152
REMARK   65  A    between atoms: _151  and  _154
REMARK   66  A    between atoms: _154  and  _155
REMARK   67  A    between atoms: _165  and  _167
REMARK   68  A    between atoms: _167  and  _168
REMARK   69  A    between atoms: _167  and  _170
REMARK   70  A    between atoms: _170  and  _171
REMARK   71  A    between atoms: _174  and  _176
REMARK   72  A    between atoms: _176  and  _177
REMARK   73  A    between atoms: _176  and  _179
REMARK   74  A    between atoms: _179  and  _180
REMARK   75  A    between atoms: _186  and  _188
REMARK   76  A    between atoms: _188  and  _189
REMARK   77  A    between atoms: _188  and  _191
REMARK   78  A    between atoms: _191  and  _192
REMARK   79  A    between atoms: _197  and  _198
REMARK   80  A    between atoms: _200  and  _202
REMARK   81  A    between atoms: _202  and  _203
REMARK   82  A    between atoms: _202  and  _205
REMARK   83  A    between atoms: _205  and  _206
REMARK   84  A    between atoms: _209  and  _211
REMARK   85  A    between atoms: _211  and  _212
REMARK   86  A    between atoms: _211  and  _214
REMARK   87  A    between atoms: _217  and  _219
REMARK   88  A    between atoms: _219  and  _220
REMARK   89  A    between atoms: _219  and  _222
REMARK   90  A    between atoms: _222  and  _223
REMARK   91  A    between atoms: _223  and  _224
REMARK   92  A    between atoms: _224  and  _225
REMARK   93  A    between atoms: _234  and  _236
REMARK   94  A    between atoms: _236  and  _237
REMARK   95  A    between atoms: _236  and  _239
REMARK   96  A    between atoms: _239  and  _240
REMARK   97  A    between atoms: _243  and  _245
REMARK   98  A    between atoms: _245  and  _246
REMARK   99  A    between atoms: _245  and  _248
REMARK  100  A    between atoms: _248  and  _249
REMARK  101  A    between atoms: _249  and  _250
REMARK  102  A    between atoms: _250  and  _251
REMARK  103  A    between atoms: _251  and  _252
REMARK  104  A    between atoms: _256  and  _258
REMARK  105  A    between atoms: _258  and  _259
REMARK  106  A    between atoms: _258  and  _261
REMARK  107  A    between atoms: _261  and  _262
REMARK  108  A    between atoms: _262  and  _263
REMARK  109  A    between atoms: _268  and  _270
REMARK  110  A    between atoms: _270  and  _271
REMARK  111  A    between atoms: _270  and  _273
REMARK  112  A    between atoms: _273  and  _274
REMARK  113  A    between atoms: _277  and  _279
REMARK  114  A    between atoms: _290  and  _293
REMARK  115  A    between atoms: _293  and  _294
REMARK  116  A    between atoms: _294  and  _295
REMARK  117  A    between atoms: _300  and  _303
REMARK  118  A    between atoms: _303  and  _304
REMARK  119  A    between atoms: _314  and  _315
REMARK  120  A    between atoms: _323  and  _325
REMARK  121  A    between atoms: _325  and  _326
REMARK  122  A    between atoms: _325  and  _328
REMARK  123  A    between atoms: _328  and  _329
REMARK  124  A    between atoms: _332  and  _334
REMARK  125  A    between atoms: _334  and  _335
REMARK  126  A    between atoms: _334  and  _337
REMARK  127  A    between atoms: _337  and  _338
REMARK  128  A    between atoms: _343  and  _344
REMARK  129  A    between atoms: _346  and  _348
REMARK  130  A    between atoms: _348  and  _349
REMARK  131  A    between atoms: _348  and  _351
REMARK  132  A    between atoms: _351  and  _352
REMARK  133  A    between atoms: _358  and  _360
REMARK  134  A    between atoms: _360  and  _361
REMARK  135  A    between atoms: _360  and  _363
REMARK  136  A    between atoms: _363  and  _364
REMARK  137  A    between atoms: _369  and  _370
REMARK  138  A    between atoms: _372  and  _374
REMARK  139  A    between atoms: _374  and  _375
REMARK  140  A    between atoms: _374  and  _377
REMARK  141  A    between atoms: _377  and  _378
REMARK  142  A    between atoms: _384  and  _386
REMARK  143  A    between atoms: _386  and  _387
REMARK  144  A    between atoms: _386  and  _389
REMARK  145  A    between atoms: _389  and  _390
REMARK  146  A    between atoms: _390  and  _391
REMARK  147  A    between atoms: _391  and  _392
REMARK  148  A    between atoms: _401  and  _403
REMARK  149  A    between atoms: _403  and  _404
REMARK  150  A    between atoms: _403  and  _406
REMARK  151  A    between atoms: _406  and  _407
REMARK  152  A    between atoms: _410  and  _412
REMARK  153  A    between atoms: _412  and  _413
REMARK  154  A    between atoms: _415  and  _417
REMARK  155  A    between atoms: _417  and  _418
REMARK  156  A    between atoms: _421  and  _423
REMARK  157  A    between atoms: _423  and  _424
REMARK  158  A    between atoms: _423  and  _426
REMARK  159  A    between atoms: _426  and  _427
REMARK  160  A    between atoms: _433  and  _434
REMARK  161  A    between atoms: _439  and  _441
REMARK  162  A    between atoms: _441  and  _442
REMARK  163  A    between atoms: _444  and  _446
REMARK  164  A    between atoms: _446  and  _447
REMARK  165  A    between atoms: _446  and  _449
REMARK  166  A    between atoms: _449  and  _450
REMARK  167  A    between atoms: _456  and  _458
REMARK  168  A    between atoms: _458  and  _459
REMARK  169  A    between atoms: _458  and  _461
REMARK  170  A    between atoms: _461  and  _462
REMARK  171  A    between atoms: _467  and  _469
REMARK  172  A    between atoms: _469  and  _470
REMARK  173  A    between atoms: _469  and  _472
REMARK  174  A    between atoms: _472  and  _473
REMARK  175  A    between atoms: _473  and  _474
REMARK  176  A    between atoms: _474  and  _475
REMARK  177  A    between atoms: _475  and  ZN_601
REMARK  178  A    between atoms: _477  and  _479
REMARK  179  A    between atoms: _479  and  _480
REMARK  180  A    between atoms: _479  and  _482
REMARK  181  A    between atoms: _482  and  _483
REMARK  182  A    between atoms: _483  and  _484
REMARK  183  A    between atoms: _484  and  _485
REMARK  184  A    between atoms: _485  and  _486
REMARK  185  A    between atoms: _490  and  _492
REMARK  186  A    between atoms: _492  and  _493
REMARK  187  A    between atoms: _492  and  _495
REMARK  188  A    between atoms: _495  and  _496
REMARK  189  A    between atoms: _501  and  _502
REMARK  190  A    between atoms: _504  and  _506
REMARK  191  A    between atoms: _506  and  _507
REMARK  192  A    between atoms: _506  and  _509
REMARK  193  A    between atoms: _509  and  _510
REMARK  194  A    between atoms: _515  and  _517
REMARK  195  A    between atoms: _517  and  _518
REMARK  196  A    between atoms: _521  and  _523
REMARK  197  A    between atoms: _523  and  _524
REMARK  198  A    between atoms: _523  and  _526
REMARK  199  A    between atoms: _526  and  _527
REMARK  200  A    between atoms: _530  and  _532
REMARK  201  A    between atoms: _532  and  _533
REMARK  202  A    between atoms: _532  and  _535
REMARK  203  A    between atoms: _538  and  _540
REMARK  204  A    between atoms: _540  and  _541
REMARK  205  A    between atoms: _540  and  _543
REMARK  206  A    between atoms: _543  and  _544
REMARK  207  A    between atoms: _544  and  _545
REMARK  208  A    between atoms: _548  and  _550
REMARK  209  A    between atoms: _550  and  _551
REMARK  210  A    between atoms: _550  and  _553
REMARK  211  A    between atoms: _553  and  _554
REMARK  212  A    between atoms: _559  and  _560
REMARK  213  A    between atoms: _562  and  _564
REMARK  214  A    between atoms: _564  and  _565
REMARK  215  A    between atoms: _564  and  _567
REMARK  216  A    between atoms: _567  and  _568
REMARK  217  A    between atoms: _568  and  _569
REMARK  218  A    between atoms: _569  and  _570
REMARK  219  A    between atoms: _579  and  _581
REMARK  220  A    between atoms: _581  and  _582
REMARK  221  A    between atoms: _581  and  _584
REMARK  222  A    between atoms: _584  and  _585
REMARK  223  A    between atoms: _590  and  _591
REMARK  224  A    between atoms: _593  and  _595
REMARK  225  A    between atoms: _595  and  _596
REMARK  226  A    between atoms: _595  and  _598
REMARK  227  A    between atoms: _598  and  _599
REMARK                            x       y       z     vdW  Elec       q    Type
REMARK                         _______ _______ _______ _____ _____    ______ ____
ROOT
ATOM      1  O   HOH     1     -10.489  27.391 -18.191  0.00  0.00    +0.000 OA
ENDROOT
TORSDOF 0
REMARK  Name = ../refined-set-2016/2xhm/2xhm_pocket.pdb
REMARK  227 active torsions:
REMARK  status: ('A' for Active; 'I' for Inactive)
REMARK    1  A    between atoms: _1  and  _3
REMARK    2  A    between atoms: _3  and  _4
REMARK    3  A    between atoms: _3  and  _6
REMARK    4  A    between atoms: _6  and  _7
REMARK    5  A    between atoms: _10  and  _12
REMARK    6  A    between atoms: _12  and  _13
REMARK    7  A    between atoms: _12  and  _15
REMARK    8  A    between atoms: _15  and  _16
REMARK    9  A    between atoms: _16  and  _17
REMARK   10  A    between atoms: _20  and  _22
REMARK   11  A    between atoms: _22  and  _23
REMARK   12  A    between atoms: _22  and  _25
REMARK   13  A    between atoms: _25  and  _26
REMARK   14  A    between atoms: _29  and  _31
REMARK   15  A    between atoms: _31  and  _32
REMARK   16  A    between atoms: _31  and  _34
REMARK   17  A    between atoms: _34  and  _35
REMARK   18  A    between atoms: _35  and  _36
REMARK   19  A    between atoms: _39  and  _41
REMARK   20  A    between atoms: _41  and  _42
REMARK   21  A    between atoms: _45  and  _47
REMARK   22  A    between atoms: _47  and  _48
REMARK   23  A    between atoms: _51  and  _53
REMARK   24  A    between atoms: _53  and  _54
REMARK   25  A    between atoms: _53  and  _56
REMARK   26  A    between atoms: _56  and  _57
REMARK   27  A    between atoms: _67  and  _69
REMARK   28  A    between atoms: _69  and  _70
REMARK   29  A    between atoms: _69  and  _72
REMARK   30  A    between atoms: _72  and  _73
REMARK   31  A    between atoms: _73  and  _74
REMARK   32  A    between atoms: _74  and  _75
REMARK   33  A    between atoms: _75  and  _76
REMARK   34  A    between atoms: _80  and  _82
REMARK   35  A    between atoms: _82  and  _83
REMARK   36  A    between atoms: _82  and  _85
REMARK   37  A    between atoms: _85  and  _86
REMARK   38  A    between atoms: _88  and  _90
REMARK   39  A    between atoms: _90  and  _91
REMARK   40  A    between atoms: _90  and  _93
REMARK   41  A    between atoms: _93  and  _94
REMARK   42  A    between atoms: _94  and  _95
REMARK   43  A    between atoms: _98  and  _100
REMARK   44  A    between atoms: _100  and  _101
REMARK   45  A    between atoms: _100  and  _103
REMARK   46  A    between atoms: _103  and  _104
REMARK   47  A    between atoms: _104  and  _105
REMARK   48  A    between atoms: _110  and  _112
REMARK   49  A    between atoms: _112  and  _113
REMARK   50  A    between atoms: _112  and  _115
REMARK   51  A    between atoms: _118  and  _120
REMARK   52  A    between atoms: _120  and  _121
REMARK   53  A    between atoms: _120  and  _123
REMARK   54  A    between atoms: _123  and  _124
REMARK   55  A    between atoms: _129  and  _131
REMARK   56  A    between atoms: _131  and  _132
REMARK   57  A    between atoms: _135  and  _137
REMARK   58  A    between atoms: _137  and  _138
REMARK   59  A    between atoms: _137  and  _140
REMARK   60  A    between atoms: _140  and  _141
REMARK   61  A    between atoms: _143  and  _145
REMARK   62  A    between atoms: _145  and  _146
REMARK   63  A    between atoms: _149  and  _151
REMARK   64  A    between atoms: _151  and  _152
REMARK   65  A    between atoms: _151  and  _154
REMARK   66  A    between atoms: _154  and  _155
REMARK   67  A    between atoms: _165  and  _167
REMARK   68  A    between atoms: _167  and  _168
REMARK   69  A    between atoms: _167  and  _170
REMARK   70  A    between atoms: _170  and  _171
REMARK   71  A    between atoms: _174  and  _176
REMARK   72  A    between atoms: _176  and  _177
REMARK   73  A    between atoms: _176  and  _179
REMARK   74  A    between atoms: _179  and  _180
REMARK   75  A    between atoms: _186  and  _188
REMARK   76  A    between atoms: _188  and  _189
REMARK   77  A    between atoms: _188  and  _191
REMARK   78  A    between atoms: _191  and  _192
REMARK   79  A    between atoms: _197  and  _198
REMARK   80  A    between atoms: _200  and  _202
REMARK   81  A    between atoms: _202  and  _203
REMARK   82  A    between atoms: _202  and  _205
REMARK   83  A    between atoms: _205  and  _206
REMARK   84  A    between atoms: _209  and  _211
REMARK   85  A    between atoms: _211  and  _212
REMARK   86  A    between atoms: _211  and  _214
REMARK   87  A    between atoms: _217  and  _219
REMARK   88  A    between atoms: _219  and  _220
REMARK   89  A    between atoms: _219  and  _222
REMARK   90  A    between atoms: _222  and  _223
REMARK   91  A    between atoms: _223  and  _224
REMARK   92  A    between atoms: _224  and  _225
REMARK   93  A    between atoms: _234  and  _236
REMARK   94  A    between atoms: _236  and  _237
REMARK   95  A    between atoms: _236  and  _239
REMARK   96  A    between atoms: _239  and  _240
REMARK   97  A    between atoms: _243  and  _245
REMARK   98  A    between atoms: _245  and  _246
REMARK   99  A    between atoms: _245  and  _248
REMARK  100  A    between atoms: _248  and  _249
REMARK  101  A    between atoms: _249  and  _250
REMARK  102  A    between atoms: _250  and  _251
REMARK  103  A    between atoms: _251  and  _252
REMARK  104  A    between atoms: _256  and  _258
REMARK  105  A    between atoms: _258  and  _259
REMARK  106  A    between atoms: _258  and  _261
REMARK  107  A    between atoms: _261  and  _262
REMARK  108  A    between atoms: _262  and  _263
REMARK  109  A    between atoms: _268  and  _270
REMARK  110  A    between atoms: _270  and  _271
REMARK  111  A    between atoms: _270  and  _273
REMARK  112  A    between atoms: _273  and  _274
REMARK  113  A    between atoms: _277  and  _279
REMARK  114  A    between atoms: _290  and  _293
REMARK  115  A    between atoms: _293  and  _294
REMARK  116  A    between atoms: _294  and  _295
REMARK  117  A    between atoms: _300  and  _303
REMARK  118  A    between atoms: _303  and  _304
REMARK  119  A    between atoms: _314  and  _315
REMARK  120  A    between atoms: _323  and  _325
REMARK  121  A    between atoms: _325  and  _326
REMARK  122  A    between atoms: _325  and  _328
REMARK  123  A    between atoms: _328  and  _329
REMARK  124  A    between atoms: _332  and  _334
REMARK  125  A    between atoms: _334  and  _335
REMARK  126  A    between atoms: _334  and  _337
REMARK  127  A    between atoms: _337  and  _338
REMARK  128  A    between atoms: _343  and  _344
REMARK  129  A    between atoms: _346  and  _348
REMARK  130  A    between atoms: _348  and  _349
REMARK  131  A    between atoms: _348  and  _351
REMARK  132  A    between atoms: _351  and  _352
REMARK  133  A    between atoms: _358  and  _360
REMARK  134  A    between atoms: _360  and  _361
REMARK  135  A    between atoms: _360  and  _363
REMARK  136  A    between atoms: _363  and  _364
REMARK  137  A    between atoms: _369  and  _370
REMARK  138  A    between atoms: _372  and  _374
REMARK  139  A    between atoms: _374  and  _375
REMARK  140  A    between atoms: _374  and  _377
REMARK  141  A    between atoms: _377  and  _378
REMARK  142  A    between atoms: _384  and  _386
REMARK  143  A    between atoms: _386  and  _387
REMARK  144  A    between atoms: _386  and  _389
REMARK  145  A    between atoms: _389  and  _390
REMARK  146  A    between atoms: _390  and  _391
REMARK  147  A    between atoms: _391  and  _392
REMARK  148  A    between atoms: _401  and  _403
REMARK  149  A    between atoms: _403  and  _404
REMARK  150  A    between atoms: _403  and  _406
REMARK  151  A    between atoms: _406  and  _407
REMARK  152  A    between atoms: _410  and  _412
REMARK  153  A    between atoms: _412  and  _413
REMARK  154  A    between atoms: _415  and  _417
REMARK  155  A    between atoms: _417  and  _418
REMARK  156  A    between atoms: _421  and  _423
REMARK  157  A    between atoms: _423  and  _424
REMARK  158  A    between atoms: _423  and  _426
REMARK  159  A    between atoms: _426  and  _427
REMARK  160  A    between atoms: _433  and  _434
REMARK  161  A    between atoms: _439  and  _441
REMARK  162  A    between atoms: _441  and  _442
REMARK  163  A    between atoms: _444  and  _446
REMARK  164  A    between atoms: _446  and  _447
REMARK  165  A    between atoms: _446  and  _449
REMARK  166  A    between atoms: _449  and  _450
REMARK  167  A    between atoms: _456  and  _458
REMARK  168  A    between atoms: _458  and  _459
REMARK  169  A    between atoms: _458  and  _461
REMARK  170  A    between atoms: _461  and  _462
REMARK  171  A    between atoms: _467  and  _469
REMARK  172  A    between atoms: _469  and  _470
REMARK  173  A    between atoms: _469  and  _472
REMARK  174  A    between atoms: _472  and  _473
REMARK  175  A    between atoms: _473  and  _474
REMARK  176  A    between atoms: _474  and  _475
REMARK  177  A    between atoms: _475  and  ZN_601
REMARK  178  A    between atoms: _477  and  _479
REMARK  179  A    between atoms: _479  and  _480
REMARK  180  A    between atoms: _479  and  _482
REMARK  181  A    between atoms: _482  and  _483
REMARK  182  A    between atoms: _483  and  _484
REMARK  183  A    between atoms: _484  and  _485
REMARK  184  A    between atoms: _485  and  _486
REMARK  185  A    between atoms: _490  and  _492
REMARK  186  A    between atoms: _492  and  _493
REMARK  187  A    between atoms: _492  and  _495
REMARK  188  A    between atoms: _495  and  _496
REMARK  189  A    between atoms: _501  and  _502
REMARK  190  A    between atoms: _504  and  _506
REMARK  191  A    between atoms: _506  and  _507
REMARK  192  A    between atoms: _506  and  _509
REMARK  193  A    between atoms: _509  and  _510
REMARK  194  A    between atoms: _515  and  _517
REMARK  195  A    between atoms: _517  and  _518
REMARK  196  A    between atoms: _521  and  _523
REMARK  197  A    between atoms: _523  and  _524
REMARK  198  A    between atoms: _523  and  _526
REMARK  199  A    between atoms: _526  and  _527
REMARK  200  A    between atoms: _530  and  _532
REMARK  201  A    between atoms: _532  and  _533
REMARK  202  A    between atoms: _532  and  _535
REMARK  203  A    between atoms: _538  and  _540
REMARK  204  A    between atoms: _540  and  _541
REMARK  205  A    between atoms: _540  and  _543
REMARK  206  A    between atoms: _543  and  _544
REMARK  207  A    between atoms: _544  and  _545
REMARK  208  A    between atoms: _548  and  _550
REMARK  209  A    between atoms: _550  and  _551
REMARK  210  A    between atoms: _550  and  _553
REMARK  211  A    between atoms: _553  and  _554
REMARK  212  A    between atoms: _559  and  _560
REMARK  213  A    between atoms: _562  and  _564
REMARK  214  A    between atoms: _564  and  _565
REMARK  215  A    between atoms: _564  and  _567
REMARK  216  A    between atoms: _567  and  _568
REMARK  217  A    between atoms: _568  and  _569
REMARK  218  A    between atoms: _569  and  _570
REMARK  219  A    between atoms: _579  and  _581
REMARK  220  A    between atoms: _581  and  _582
REMARK  221  A    between atoms: _581  and  _584
REMARK  222  A    between atoms: _584  and  _585
REMARK  223  A    between atoms: _590  and  _591
REMARK  224  A    between atoms: _593  and  _595
REMARK  225  A    between atoms: _595  and  _596
REMARK  226  A    between atoms: _595  and  _598
REMARK  227  A    between atoms: _598  and  _599
REMARK                            x       y       z     vdW  Elec       q    Type
REMARK                         _______ _______ _______ _____ _____    ______ ____
ROOT
ATOM      1  O   HOH     1     -11.261  31.860 -17.888  0.00  0.00    +0.000 OA
ENDROOT
TORSDOF 0
REMARK  Name = ../refined-set-2016/2xhm/2xhm_pocket.pdb
REMARK  227 active torsions:
REMARK  status: ('A' for Active; 'I' for Inactive)
REMARK    1  A    between atoms: _1  and  _3
REMARK    2  A    between atoms: _3  and  _4
REMARK    3  A    between atoms: _3  and  _6
REMARK    4  A    between atoms: _6  and  _7
REMARK    5  A    between atoms: _10  and  _12
REMARK    6  A    between atoms: _12  and  _13
REMARK    7  A    between atoms: _12  and  _15
REMARK    8  A    between atoms: _15  and  _16
REMARK    9  A    between atoms: _16  and  _17
REMARK   10  A    between atoms: _20  and  _22
REMARK   11  A    between atoms: _22  and  _23
REMARK   12  A    between atoms: _22  and  _25
REMARK   13  A    between atoms: _25  and  _26
REMARK   14  A    between atoms: _29  and  _31
REMARK   15  A    between atoms: _31  and  _32
REMARK   16  A    between atoms: _31  and  _34
REMARK   17  A    between atoms: _34  and  _35
REMARK   18  A    between atoms: _35  and  _36
REMARK   19  A    between atoms: _39  and  _41
REMARK   20  A    between atoms: _41  and  _42
REMARK   21  A    between atoms: _45  and  _47
REMARK   22  A    between atoms: _47  and  _48
REMARK   23  A    between atoms: _51  and  _53
REMARK   24  A    between atoms: _53  and  _54
REMARK   25  A    between atoms: _53  and  _56
REMARK   26  A    between atoms: _56  and  _57
REMARK   27  A    between atoms: _67  and  _69
REMARK   28  A    between atoms: _69  and  _70
REMARK   29  A    between atoms: _69  and  _72
REMARK   30  A    between atoms: _72  and  _73
REMARK   31  A    between atoms: _73  and  _74
REMARK   32  A    between atoms: _74  and  _75
REMARK   33  A    between atoms: _75  and  _76
REMARK   34  A    between atoms: _80  and  _82
REMARK   35  A    between atoms: _82  and  _83
REMARK   36  A    between atoms: _82  and  _85
REMARK   37  A    between atoms: _85  and  _86
REMARK   38  A    between atoms: _88  and  _90
REMARK   39  A    between atoms: _90  and  _91
REMARK   40  A    between atoms: _90  and  _93
REMARK   41  A    between atoms: _93  and  _94
REMARK   42  A    between atoms: _94  and  _95
REMARK   43  A    between atoms: _98  and  _100
REMARK   44  A    between atoms: _100  and  _101
REMARK   45  A    between atoms: _100  and  _103
REMARK   46  A    between atoms: _103  and  _104
REMARK   47  A    between atoms: _104  and  _105
REMARK   48  A    between atoms: _110  and  _112
REMARK   49  A    between atoms: _112  and  _113
REMARK   50  A    between atoms: _112  and  _115
REMARK   51  A    between atoms: _118  and  _120
REMARK   52  A    between atoms: _120  and  _121
REMARK   53  A    between atoms: _120  and  _123
REMARK   54  A    between atoms: _123  and  _124
REMARK   55  A    between atoms: _129  and  _131
REMARK   56  A    between atoms: _131  and  _132
REMARK   57  A    between atoms: _135  and  _137
REMARK   58  A    between atoms: _137  and  _138
REMARK   59  A    between atoms: _137  and  _140
REMARK   60  A    between atoms: _140  and  _141
REMARK   61  A    between atoms: _143  and  _145
REMARK   62  A    between atoms: _145  and  _146
REMARK   63  A    between atoms: _149  and  _151
REMARK   64  A    between atoms: _151  and  _152
REMARK   65  A    between atoms: _151  and  _154
REMARK   66  A    between atoms: _154  and  _155
REMARK   67  A    between atoms: _165  and  _167
REMARK   68  A    between atoms: _167  and  _168
REMARK   69  A    between atoms: _167  and  _170
REMARK   70  A    between atoms: _170  and  _171
REMARK   71  A    between atoms: _174  and  _176
REMARK   72  A    between atoms: _176  and  _177
REMARK   73  A    between atoms: _176  and  _179
REMARK   74  A    between atoms: _179  and  _180
REMARK   75  A    between atoms: _186  and  _188
REMARK   76  A    between atoms: _188  and  _189
REMARK   77  A    between atoms: _188  and  _191
REMARK   78  A    between atoms: _191  and  _192
REMARK   79  A    between atoms: _197  and  _198
REMARK   80  A    between atoms: _200  and  _202
REMARK   81  A    between atoms: _202  and  _203
REMARK   82  A    between atoms: _202  and  _205
REMARK   83  A    between atoms: _205  and  _206
REMARK   84  A    between atoms: _209  and  _211
REMARK   85  A    between atoms: _211  and  _212
REMARK   86  A    between atoms: _211  and  _214
REMARK   87  A    between atoms: _217  and  _219
REMARK   88  A    between atoms: _219  and  _220
REMARK   89  A    between atoms: _219  and  _222
REMARK   90  A    between atoms: _222  and  _223
REMARK   91  A    between atoms: _223  and  _224
REMARK   92  A    between atoms: _224  and  _225
REMARK   93  A    between atoms: _234  and  _236
REMARK   94  A    between atoms: _236  and  _237
REMARK   95  A    between atoms: _236  and  _239
REMARK   96  A    between atoms: _239  and  _240
REMARK   97  A    between atoms: _243  and  _245
REMARK   98  A    between atoms: _245  and  _246
REMARK   99  A    between atoms: _245  and  _248
REMARK  100  A    between atoms: _248  and  _249
REMARK  101  A    between atoms: _249  and  _250
REMARK  102  A    between atoms: _250  and  _251
REMARK  103  A    between atoms: _251  and  _252
REMARK  104  A    between atoms: _256  and  _258
REMARK  105  A    between atoms: _258  and  _259
REMARK  106  A    between atoms: _258  and  _261
REMARK  107  A    between atoms: _261  and  _262
REMARK  108  A    between atoms: _262  and  _263
REMARK  109  A    between atoms: _268  and  _270
REMARK  110  A    between atoms: _270  and  _271
REMARK  111  A    between atoms: _270  and  _273
REMARK  112  A    between atoms: _273  and  _274
REMARK  113  A    between atoms: _277  and  _279
REMARK  114  A    between atoms: _290  and  _293
REMARK  115  A    between atoms: _293  and  _294
REMARK  116  A    between atoms: _294  and  _295
REMARK  117  A    between atoms: _300  and  _303
REMARK  118  A    between atoms: _303  and  _304
REMARK  119  A    between atoms: _314  and  _315
REMARK  120  A    between atoms: _323  and  _325
REMARK  121  A    between atoms: _325  and  _326
REMARK  122  A    between atoms: _325  and  _328
REMARK  123  A    between atoms: _328  and  _329
REMARK  124  A    between atoms: _332  and  _334
REMARK  125  A    between atoms: _334  and  _335
REMARK  126  A    between atoms: _334  and  _337
REMARK  127  A    between atoms: _337  and  _338
REMARK  128  A    between atoms: _343  and  _344
REMARK  129  A    between atoms: _346  and  _348
REMARK  130  A    between atoms: _348  and  _349
REMARK  131  A    between atoms: _348  and  _351
REMARK  132  A    between atoms: _351  and  _352
REMARK  133  A    between atoms: _358  and  _360
REMARK  134  A    between atoms: _360  and  _361
REMARK  135  A    between atoms: _360  and  _363
REMARK  136  A    between atoms: _363  and  _364
REMARK  137  A    between atoms: _369  and  _370
REMARK  138  A    between atoms: _372  and  _374
REMARK  139  A    between atoms: _374  and  _375
REMARK  140  A    between atoms: _374  and  _377
REMARK  141  A    between atoms: _377  and  _378
REMARK  142  A    between atoms: _384  and  _386
REMARK  143  A    between atoms: _386  and  _387
REMARK  144  A    between atoms: _386  and  _389
REMARK  145  A    between atoms: _389  and  _390
REMARK  146  A    between atoms: _390  and  _391
REMARK  147  A    between atoms: _391  and  _392
REMARK  148  A    between atoms: _401  and  _403
REMARK  149  A    between atoms: _403  and  _404
REMARK  150  A    between atoms: _403  and  _406
REMARK  151  A    between atoms: _406  and  _407
REMARK  152  A    between atoms: _410  and  _412
REMARK  153  A    between atoms: _412  and  _413
REMARK  154  A    between atoms: _415  and  _417
REMARK  155  A    between atoms: _417  and  _418
REMARK  156  A    between atoms: _421  and  _423
REMARK  157  A    between atoms: _423  and  _424
REMARK  158  A    between atoms: _423  and  _426
REMARK  159  A    between atoms: _426  and  _427
REMARK  160  A    between atoms: _433  and  _434
REMARK  161  A    between atoms: _439  and  _441
REMARK  162  A    between atoms: _441  and  _442
REMARK  163  A    between atoms: _444  and  _446
REMARK  164  A    between atoms: _446  and  _447
REMARK  165  A    between atoms: _446  and  _449
REMARK  166  A    between atoms: _449  and  _450
REMARK  167  A    between atoms: _456  and  _458
REMARK  168  A    between atoms: _458  and  _459
REMARK  169  A    between atoms: _458  and  _461
REMARK  170  A    between atoms: _461  and  _462
REMARK  171  A    between atoms: _467  and  _469
REMARK  172  A    between atoms: _469  and  _470
REMARK  173  A    between atoms: _469  and  _472
REMARK  174  A    between atoms: _472  and  _473
REMARK  175  A    between atoms: _473  and  _474
REMARK  176  A    between atoms: _474  and  _475
REMARK  177  A    between atoms: _475  and  ZN_601
REMARK  178  A    between atoms: _477  and  _479
REMARK  179  A    between atoms: _479  and  _480
REMARK  180  A    between atoms: _479  and  _482
REMARK  181  A    between atoms: _482  and  _483
REMARK  182  A    between atoms: _483  and  _484
REMARK  183  A    between atoms: _484  and  _485
REMARK  184  A    between atoms: _485  and  _486
REMARK  185  A    between atoms: _490  and  _492
REMARK  186  A    between atoms: _492  and  _493
REMARK  187  A    between atoms: _492  and  _495
REMARK  188  A    between atoms: _495  and  _496
REMARK  189  A    between atoms: _501  and  _502
REMARK  190  A    between atoms: _504  and  _506
REMARK  191  A    between atoms: _506  and  _507
REMARK  192  A    between atoms: _506  and  _509
REMARK  193  A    between atoms: _509  and  _510
REMARK  194  A    between atoms: _515  and  _517
REMARK  195  A    between atoms: _517  and  _518
REMARK  196  A    between atoms: _521  and  _523
REMARK  197  A    between atoms: _523  and  _524
REMARK  198  A    between atoms: _523  and  _526
REMARK  199  A    between atoms: _526  and  _527
REMARK  200  A    between atoms: _530  and  _532
REMARK  201  A    between atoms: _532  and  _533
REMARK  202  A    between atoms: _532  and  _535
REMARK  203  A    between atoms: _538  and  _540
REMARK  204  A    between atoms: _540  and  _541
REMARK  205  A    between atoms: _540  and  _543
REMARK  206  A    between atoms: _543  and  _544
REMARK  207  A    between atoms: _544  and  _545
REMARK  208  A    between atoms: _548  and  _550
REMARK  209  A    between atoms: _550  and  _551
REMARK  210  A    between atoms: _550  and  _553
REMARK  211  A    between atoms: _553  and  _554
REMARK  212  A    between atoms: _559  and  _560
REMARK  213  A    between atoms: _562  and  _564
REMARK  214  A    between atoms: _564  and  _565
REMARK  215  A    between atoms: _564  and  _567
REMARK  216  A    between atoms: _567  and  _568
REMARK  217  A    between atoms: _568  and  _569
REMARK  218  A    between atoms: _569  and  _570
REMARK  219  A    between atoms: _579  and  _581
REMARK  220  A    between atoms: _581  and  _582
REMARK  221  A    between atoms: _581  and  _584
REMARK  222  A    between atoms: _584  and  _585
REMARK  223  A    between atoms: _590  and  _591
REMARK  224  A    between atoms: _593  and  _595
REMARK  225  A    between atoms: _595  and  _596
REMARK  226  A    between atoms: _595  and  _598
REMARK  227  A    between atoms: _598  and  _599
REMARK                            x       y       z     vdW  Elec       q    Type
REMARK                         _______ _______ _______ _____ _____    ______ ____
ROOT
ATOM      1  O   HOH     1      -9.565  29.969 -18.688  0.00  0.00    +0.000 OA
ENDROOT
TORSDOF 0
REMARK  Name = ../refined-set-2016/2xhm/2xhm_pocket.pdb
REMARK  227 active torsions:
REMARK  status: ('A' for Active; 'I' for Inactive)
REMARK    1  A    between atoms: _1  and  _3
REMARK    2  A    between atoms: _3  and  _4
REMARK    3  A    between atoms: _3  and  _6
REMARK    4  A    between atoms: _6  and  _7
REMARK    5  A    between atoms: _10  and  _12
REMARK    6  A    between atoms: _12  and  _13
REMARK    7  A    between atoms: _12  and  _15
REMARK    8  A    between atoms: _15  and  _16
REMARK    9  A    between atoms: _16  and  _17
REMARK   10  A    between atoms: _20  and  _22
REMARK   11  A    between atoms: _22  and  _23
REMARK   12  A    between atoms: _22  and  _25
REMARK   13  A    between atoms: _25  and  _26
REMARK   14  A    between atoms: _29  and  _31
REMARK   15  A    between atoms: _31  and  _32
REMARK   16  A    between atoms: _31  and  _34
REMARK   17  A    between atoms: _34  and  _35
REMARK   18  A    between atoms: _35  and  _36
REMARK   19  A    between atoms: _39  and  _41
REMARK   20  A    between atoms: _41  and  _42
REMARK   21  A    between atoms: _45  and  _47
REMARK   22  A    between atoms: _47  and  _48
REMARK   23  A    between atoms: _51  and  _53
REMARK   24  A    between atoms: _53  and  _54
REMARK   25  A    between atoms: _53  and  _56
REMARK   26  A    between atoms: _56  and  _57
REMARK   27  A    between atoms: _67  and  _69
REMARK   28  A    between atoms: _69  and  _70
REMARK   29  A    between atoms: _69  and  _72
REMARK   30  A    between atoms: _72  and  _73
REMARK   31  A    between atoms: _73  and  _74
REMARK   32  A    between atoms: _74  and  _75
REMARK   33  A    between atoms: _75  and  _76
REMARK   34  A    between atoms: _80  and  _82
REMARK   35  A    between atoms: _82  and  _83
REMARK   36  A    between atoms: _82  and  _85
REMARK   37  A    between atoms: _85  and  _86
REMARK   38  A    between atoms: _88  and  _90
REMARK   39  A    between atoms: _90  and  _91
REMARK   40  A    between atoms: _90  and  _93
REMARK   41  A    between atoms: _93  and  _94
REMARK   42  A    between atoms: _94  and  _95
REMARK   43  A    between atoms: _98  and  _100
REMARK   44  A    between atoms: _100  and  _101
REMARK   45  A    between atoms: _100  and  _103
REMARK   46  A    between atoms: _103  and  _104
REMARK   47  A    between atoms: _104  and  _105
REMARK   48  A    between atoms: _110  and  _112
REMARK   49  A    between atoms: _112  and  _113
REMARK   50  A    between atoms: _112  and  _115
REMARK   51  A    between atoms: _118  and  _120
REMARK   52  A    between atoms: _120  and  _121
REMARK   53  A    between atoms: _120  and  _123
REMARK   54  A    between atoms: _123  and  _124
REMARK   55  A    between atoms: _129  and  _131
REMARK   56  A    between atoms: _131  and  _132
REMARK   57  A    between atoms: _135  and  _137
REMARK   58  A    between atoms: _137  and  _138
REMARK   59  A    between atoms: _137  and  _140
REMARK   60  A    between atoms: _140  and  _141
REMARK   61  A    between atoms: _143  and  _145
REMARK   62  A    between atoms: _145  and  _146
REMARK   63  A    between atoms: _149  and  _151
REMARK   64  A    between atoms: _151  and  _152
REMARK   65  A    between atoms: _151  and  _154
REMARK   66  A    between atoms: _154  and  _155
REMARK   67  A    between atoms: _165  and  _167
REMARK   68  A    between atoms: _167  and  _168
REMARK   69  A    between atoms: _167  and  _170
REMARK   70  A    between atoms: _170  and  _171
REMARK   71  A    between atoms: _174  and  _176
REMARK   72  A    between atoms: _176  and  _177
REMARK   73  A    between atoms: _176  and  _179
REMARK   74  A    between atoms: _179  and  _180
REMARK   75  A    between atoms: _186  and  _188
REMARK   76  A    between atoms: _188  and  _189
REMARK   77  A    between atoms: _188  and  _191
REMARK   78  A    between atoms: _191  and  _192
REMARK   79  A    between atoms: _197  and  _198
REMARK   80  A    between atoms: _200  and  _202
REMARK   81  A    between atoms: _202  and  _203
REMARK   82  A    between atoms: _202  and  _205
REMARK   83  A    between atoms: _205  and  _206
REMARK   84  A    between atoms: _209  and  _211
REMARK   85  A    between atoms: _211  and  _212
REMARK   86  A    between atoms: _211  and  _214
REMARK   87  A    between atoms: _217  and  _219
REMARK   88  A    between atoms: _219  and  _220
REMARK   89  A    between atoms: _219  and  _222
REMARK   90  A    between atoms: _222  and  _223
REMARK   91  A    between atoms: _223  and  _224
REMARK   92  A    between atoms: _224  and  _225
REMARK   93  A    between atoms: _234  and  _236
REMARK   94  A    between atoms: _236  and  _237
REMARK   95  A    between atoms: _236  and  _239
REMARK   96  A    between atoms: _239  and  _240
REMARK   97  A    between atoms: _243  and  _245
REMARK   98  A    between atoms: _245  and  _246
REMARK   99  A    between atoms: _245  and  _248
REMARK  100  A    between atoms: _248  and  _249
REMARK  101  A    between atoms: _249  and  _250
REMARK  102  A    between atoms: _250  and  _251
REMARK  103  A    between atoms: _251  and  _252
REMARK  104  A    between atoms: _256  and  _258
REMARK  105  A    between atoms: _258  and  _259
REMARK  106  A    between atoms: _258  and  _261
REMARK  107  A    between atoms: _261  and  _262
REMARK  108  A    between atoms: _262  and  _263
REMARK  109  A    between atoms: _268  and  _270
REMARK  110  A    between atoms: _270  and  _271
REMARK  111  A    between atoms: _270  and  _273
REMARK  112  A    between atoms: _273  and  _274
REMARK  113  A    between atoms: _277  and  _279
REMARK  114  A    between atoms: _290  and  _293
REMARK  115  A    between atoms: _293  and  _294
REMARK  116  A    between atoms: _294  and  _295
REMARK  117  A    between atoms: _300  and  _303
REMARK  118  A    between atoms: _303  and  _304
REMARK  119  A    between atoms: _314  and  _315
REMARK  120  A    between atoms: _323  and  _325
REMARK  121  A    between atoms: _325  and  _326
REMARK  122  A    between atoms: _325  and  _328
REMARK  123  A    between atoms: _328  and  _329
REMARK  124  A    between atoms: _332  and  _334
REMARK  125  A    between atoms: _334  and  _335
REMARK  126  A    between atoms: _334  and  _337
REMARK  127  A    between atoms: _337  and  _338
REMARK  128  A    between atoms: _343  and  _344
REMARK  129  A    between atoms: _346  and  _348
REMARK  130  A    between atoms: _348  and  _349
REMARK  131  A    between atoms: _348  and  _351
REMARK  132  A    between atoms: _351  and  _352
REMARK  133  A    between atoms: _358  and  _360
REMARK  134  A    between atoms: _360  and  _361
REMARK  135  A    between atoms: _360  and  _363
REMARK  136  A    between atoms: _363  and  _364
REMARK  137  A    between atoms: _369  and  _370
REMARK  138  A    between atoms: _372  and  _374
REMARK  139  A    between atoms: _374  and  _375
REMARK  140  A    between atoms: _374  and  _377
REMARK  141  A    between atoms: _377  and  _378
REMARK  142  A    between atoms: _384  and  _386
REMARK  143  A    between atoms: _386  and  _387
REMARK  144  A    between atoms: _386  and  _389
REMARK  145  A    between atoms: _389  and  _390
REMARK  146  A    between atoms: _390  and  _391
REMARK  147  A    between atoms: _391  and  _392
REMARK  148  A    between atoms: _401  and  _403
REMARK  149  A    between atoms: _403  and  _404
REMARK  150  A    between atoms: _403  and  _406
REMARK  151  A    between atoms: _406  and  _407
REMARK  152  A    between atoms: _410  and  _412
REMARK  153  A    between atoms: _412  and  _413
REMARK  154  A    between atoms: _415  and  _417
REMARK  155  A    between atoms: _417  and  _418
REMARK  156  A    between atoms: _421  and  _423
REMARK  157  A    between atoms: _423  and  _424
REMARK  158  A    between atoms: _423  and  _426
REMARK  159  A    between atoms: _426  and  _427
REMARK  160  A    between atoms: _433  and  _434
REMARK  161  A    between atoms: _439  and  _441
REMARK  162  A    between atoms: _441  and  _442
REMARK  163  A    between atoms: _444  and  _446
REMARK  164  A    between atoms: _446  and  _447
REMARK  165  A    between atoms: _446  and  _449
REMARK  166  A    between atoms: _449  and  _450
REMARK  167  A    between atoms: _456  and  _458
REMARK  168  A    between atoms: _458  and  _459
REMARK  169  A    between atoms: _458  and  _461
REMARK  170  A    between atoms: _461  and  _462
REMARK  171  A    between atoms: _467  and  _469
REMARK  172  A    between atoms: _469  and  _470
REMARK  173  A    between atoms: _469  and  _472
REMARK  174  A    between atoms: _472  and  _473
REMARK  175  A    between atoms: _473  and  _474
REMARK  176  A    between atoms: _474  and  _475
REMARK  177  A    between atoms: _475  and  ZN_601
REMARK  178  A    between atoms: _477  and  _479
REMARK  179  A    between atoms: _479  and  _480
REMARK  180  A    between atoms: _479  and  _482
REMARK  181  A    between atoms: _482  and  _483
REMARK  182  A    between atoms: _483  and  _484
REMARK  183  A    between atoms: _484  and  _485
REMARK  184  A    between atoms: _485  and  _486
REMARK  185  A    between atoms: _490  and  _492
REMARK  186  A    between atoms: _492  and  _493
REMARK  187  A    between atoms: _492  and  _495
REMARK  188  A    between atoms: _495  and  _496
REMARK  189  A    between atoms: _501  and  _502
REMARK  190  A    between atoms: _504  and  _506
REMARK  191  A    between atoms: _506  and  _507
REMARK  192  A    between atoms: _506  and  _509
REMARK  193  A    between atoms: _509  and  _510
REMARK  194  A    between atoms: _515  and  _517
REMARK  195  A    between atoms: _517  and  _518
REMARK  196  A    between atoms: _521  and  _523
REMARK  197  A    between atoms: _523  and  _524
REMARK  198  A    between atoms: _523  and  _526
REMARK  199  A    between atoms: _526  and  _527
REMARK  200  A    between atoms: _530  and  _532
REMARK  201  A    between atoms: _532  and  _533
REMARK  202  A    between atoms: _532  and  _535
REMARK  203  A    between atoms: _538  and  _540
REMARK  204  A    between atoms: _540  and  _541
REMARK  205  A    between atoms: _540  and  _543
REMARK  206  A    between atoms: _543  and  _544
REMARK  207  A    between atoms: _544  and  _545
REMARK  208  A    between atoms: _548  and  _550
REMARK  209  A    between atoms: _550  and  _551
REMARK  210  A    between atoms: _550  and  _553
REMARK  211  A    between atoms: _553  and  _554
REMARK  212  A    between atoms: _559  and  _560
REMARK  213  A    between atoms: _562  and  _564
REMARK  214  A    between atoms: _564  and  _565
REMARK  215  A    between atoms: _564  and  _567
REMARK  216  A    between atoms: _567  and  _568
REMARK  217  A    between atoms: _568  and  _569
REMARK  218  A    between atoms: _569  and  _570
REMARK  219  A    between atoms: _579  and  _581
REMARK  220  A    between atoms: _581  and  _582
REMARK  221  A    between atoms: _581  and  _584
REMARK  222  A    between atoms: _584  and  _585
REMARK  223  A    between atoms: _590  and  _591
REMARK  224  A    between atoms: _593  and  _595
REMARK  225  A    between atoms: _595  and  _596
REMARK  226  A    between atoms: _595  and  _598
REMARK  227  A    between atoms: _598  and  _599
REMARK                            x       y       z     vdW  Elec       q    Type
REMARK                         _______ _______ _______ _____ _____    ______ ____
ROOT
ATOM      1  O   HOH     1     -20.387  22.231 -16.322  0.00  0.00    +0.000 OA
ENDROOT
TORSDOF 0
REMARK  Name = ../refined-set-2016/2xhm/2xhm_pocket.pdb
REMARK  227 active torsions:
REMARK  status: ('A' for Active; 'I' for Inactive)
REMARK    1  A    between atoms: _1  and  _3
REMARK    2  A    between atoms: _3  and  _4
REMARK    3  A    between atoms: _3  and  _6
REMARK    4  A    between atoms: _6  and  _7
REMARK    5  A    between atoms: _10  and  _12
REMARK    6  A    between atoms: _12  and  _13
REMARK    7  A    between atoms: _12  and  _15
REMARK    8  A    between atoms: _15  and  _16
REMARK    9  A    between atoms: _16  and  _17
REMARK   10  A    between atoms: _20  and  _22
REMARK   11  A    between atoms: _22  and  _23
REMARK   12  A    between atoms: _22  and  _25
REMARK   13  A    between atoms: _25  and  _26
REMARK   14  A    between atoms: _29  and  _31
REMARK   15  A    between atoms: _31  and  _32
REMARK   16  A    between atoms: _31  and  _34
REMARK   17  A    between atoms: _34  and  _35
REMARK   18  A    between atoms: _35  and  _36
REMARK   19  A    between atoms: _39  and  _41
REMARK   20  A    between atoms: _41  and  _42
REMARK   21  A    between atoms: _45  and  _47
REMARK   22  A    between atoms: _47  and  _48
REMARK   23  A    between atoms: _51  and  _53
REMARK   24  A    between atoms: _53  and  _54
REMARK   25  A    between atoms: _53  and  _56
REMARK   26  A    between atoms: _56  and  _57
REMARK   27  A    between atoms: _67  and  _69
REMARK   28  A    between atoms: _69  and  _70
REMARK   29  A    between atoms: _69  and  _72
REMARK   30  A    between atoms: _72  and  _73
REMARK   31  A    between atoms: _73  and  _74
REMARK   32  A    between atoms: _74  and  _75
REMARK   33  A    between atoms: _75  and  _76
REMARK   34  A    between atoms: _80  and  _82
REMARK   35  A    between atoms: _82  and  _83
REMARK   36  A    between atoms: _82  and  _85
REMARK   37  A    between atoms: _85  and  _86
REMARK   38  A    between atoms: _88  and  _90
REMARK   39  A    between atoms: _90  and  _91
REMARK   40  A    between atoms: _90  and  _93
REMARK   41  A    between atoms: _93  and  _94
REMARK   42  A    between atoms: _94  and  _95
REMARK   43  A    between atoms: _98  and  _100
REMARK   44  A    between atoms: _100  and  _101
REMARK   45  A    between atoms: _100  and  _103
REMARK   46  A    between atoms: _103  and  _104
REMARK   47  A    between atoms: _104  and  _105
REMARK   48  A    between atoms: _110  and  _112
REMARK   49  A    between atoms: _112  and  _113
REMARK   50  A    between atoms: _112  and  _115
REMARK   51  A    between atoms: _118  and  _120
REMARK   52  A    between atoms: _120  and  _121
REMARK   53  A    between atoms: _120  and  _123
REMARK   54  A    between atoms: _123  and  _124
REMARK   55  A    between atoms: _129  and  _131
REMARK   56  A    between atoms: _131  and  _132
REMARK   57  A    between atoms: _135  and  _137
REMARK   58  A    between atoms: _137  and  _138
REMARK   59  A    between atoms: _137  and  _140
REMARK   60  A    between atoms: _140  and  _141
REMARK   61  A    between atoms: _143  and  _145
REMARK   62  A    between atoms: _145  and  _146
REMARK   63  A    between atoms: _149  and  _151
REMARK   64  A    between atoms: _151  and  _152
REMARK   65  A    between atoms: _151  and  _154
REMARK   66  A    between atoms: _154  and  _155
REMARK   67  A    between atoms: _165  and  _167
REMARK   68  A    between atoms: _167  and  _168
REMARK   69  A    between atoms: _167  and  _170
REMARK   70  A    between atoms: _170  and  _171
REMARK   71  A    between atoms: _174  and  _176
REMARK   72  A    between atoms: _176  and  _177
REMARK   73  A    between atoms: _176  and  _179
REMARK   74  A    between atoms: _179  and  _180
REMARK   75  A    between atoms: _186  and  _188
REMARK   76  A    between atoms: _188  and  _189
REMARK   77  A    between atoms: _188  and  _191
REMARK   78  A    between atoms: _191  and  _192
REMARK   79  A    between atoms: _197  and  _198
REMARK   80  A    between atoms: _200  and  _202
REMARK   81  A    between atoms: _202  and  _203
REMARK   82  A    between atoms: _202  and  _205
REMARK   83  A    between atoms: _205  and  _206
REMARK   84  A    between atoms: _209  and  _211
REMARK   85  A    between atoms: _211  and  _212
REMARK   86  A    between atoms: _211  and  _214
REMARK   87  A    between atoms: _217  and  _219
REMARK   88  A    between atoms: _219  and  _220
REMARK   89  A    between atoms: _219  and  _222
REMARK   90  A    between atoms: _222  and  _223
REMARK   91  A    between atoms: _223  and  _224
REMARK   92  A    between atoms: _224  and  _225
REMARK   93  A    between atoms: _234  and  _236
REMARK   94  A    between atoms: _236  and  _237
REMARK   95  A    between atoms: _236  and  _239
REMARK   96  A    between atoms: _239  and  _240
REMARK   97  A    between atoms: _243  and  _245
REMARK   98  A    between atoms: _245  and  _246
REMARK   99  A    between atoms: _245  and  _248
REMARK  100  A    between atoms: _248  and  _249
REMARK  101  A    between atoms: _249  and  _250
REMARK  102  A    between atoms: _250  and  _251
REMARK  103  A    between atoms: _251  and  _252
REMARK  104  A    between atoms: _256  and  _258
REMARK  105  A    between atoms: _258  and  _259
REMARK  106  A    between atoms: _258  and  _261
REMARK  107  A    between atoms: _261  and  _262
REMARK  108  A    between atoms: _262  and  _263
REMARK  109  A    between atoms: _268  and  _270
REMARK  110  A    between atoms: _270  and  _271
REMARK  111  A    between atoms: _270  and  _273
REMARK  112  A    between atoms: _273  and  _274
REMARK  113  A    between atoms: _277  and  _279
REMARK  114  A    between atoms: _290  and  _293
REMARK  115  A    between atoms: _293  and  _294
REMARK  116  A    between atoms: _294  and  _295
REMARK  117  A    between atoms: _300  and  _303
REMARK  118  A    between atoms: _303  and  _304
REMARK  119  A    between atoms: _314  and  _315
REMARK  120  A    between atoms: _323  and  _325
REMARK  121  A    between atoms: _325  and  _326
REMARK  122  A    between atoms: _325  and  _328
REMARK  123  A    between atoms: _328  and  _329
REMARK  124  A    between atoms: _332  and  _334
REMARK  125  A    between atoms: _334  and  _335
REMARK  126  A    between atoms: _334  and  _337
REMARK  127  A    between atoms: _337  and  _338
REMARK  128  A    between atoms: _343  and  _344
REMARK  129  A    between atoms: _346  and  _348
REMARK  130  A    between atoms: _348  and  _349
REMARK  131  A    between atoms: _348  and  _351
REMARK  132  A    between atoms: _351  and  _352
REMARK  133  A    between atoms: _358  and  _360
REMARK  134  A    between atoms: _360  and  _361
REMARK  135  A    between atoms: _360  and  _363
REMARK  136  A    between atoms: _363  and  _364
REMARK  137  A    between atoms: _369  and  _370
REMARK  138  A    between atoms: _372  and  _374
REMARK  139  A    between atoms: _374  and  _375
REMARK  140  A    between atoms: _374  and  _377
REMARK  141  A    between atoms: _377  and  _378
REMARK  142  A    between atoms: _384  and  _386
REMARK  143  A    between atoms: _386  and  _387
REMARK  144  A    between atoms: _386  and  _389
REMARK  145  A    between atoms: _389  and  _390
REMARK  146  A    between atoms: _390  and  _391
REMARK  147  A    between atoms: _391  and  _392
REMARK  148  A    between atoms: _401  and  _403
REMARK  149  A    between atoms: _403  and  _404
REMARK  150  A    between atoms: _403  and  _406
REMARK  151  A    between atoms: _406  and  _407
REMARK  152  A    between atoms: _410  and  _412
REMARK  153  A    between atoms: _412  and  _413
REMARK  154  A    between atoms: _415  and  _417
REMARK  155  A    between atoms: _417  and  _418
REMARK  156  A    between atoms: _421  and  _423
REMARK  157  A    between atoms: _423  and  _424
REMARK  158  A    between atoms: _423  and  _426
REMARK  159  A    between atoms: _426  and  _427
REMARK  160  A    between atoms: _433  and  _434
REMARK  161  A    between atoms: _439  and  _441
REMARK  162  A    between atoms: _441  and  _442
REMARK  163  A    between atoms: _444  and  _446
REMARK  164  A    between atoms: _446  and  _447
REMARK  165  A    between atoms: _446  and  _449
REMARK  166  A    between atoms: _449  and  _450
REMARK  167  A    between atoms: _456  and  _458
REMARK  168  A    between atoms: _458  and  _459
REMARK  169  A    between atoms: _458  and  _461
REMARK  170  A    between atoms: _461  and  _462
REMARK  171  A    between atoms: _467  and  _469
REMARK  172  A    between atoms: _469  and  _470
REMARK  173  A    between atoms: _469  and  _472
REMARK  174  A    between atoms: _472  and  _473
REMARK  175  A    between atoms: _473  and  _474
REMARK  176  A    between atoms: _474  and  _475
REMARK  177  A    between atoms: _475  and  ZN_601
REMARK  178  A    between atoms: _477  and  _479
REMARK  179  A    between atoms: _479  and  _480
REMARK  180  A    between atoms: _479  and  _482
REMARK  181  A    between atoms: _482  and  _483
REMARK  182  A    between atoms: _483  and  _484
REMARK  183  A    between atoms: _484  and  _485
REMARK  184  A    between atoms: _485  and  _486
REMARK  185  A    between atoms: _490  and  _492
REMARK  186  A    between atoms: _492  and  _493
REMARK  187  A    between atoms: _492  and  _495
REMARK  188  A    between atoms: _495  and  _496
REMARK  189  A    between atoms: _501  and  _502
REMARK  190  A    between atoms: _504  and  _506
REMARK  191  A    between atoms: _506  and  _507
REMARK  192  A    between atoms: _506  and  _509
REMARK  193  A    between atoms: _509  and  _510
REMARK  194  A    between atoms: _515  and  _517
REMARK  195  A    between atoms: _517  and  _518
REMARK  196  A    between atoms: _521  and  _523
REMARK  197  A    between atoms: _523  and  _524
REMARK  198  A    between atoms: _523  and  _526
REMARK  199  A    between atoms: _526  and  _527
REMARK  200  A    between atoms: _530  and  _532
REMARK  201  A    between atoms: _532  and  _533
REMARK  202  A    between atoms: _532  and  _535
REMARK  203  A    between atoms: _538  and  _540
REMARK  204  A    between atoms: _540  and  _541
REMARK  205  A    between atoms: _540  and  _543
REMARK  206  A    between atoms: _543  and  _544
REMARK  207  A    between atoms: _544  and  _545
REMARK  208  A    between atoms: _548  and  _550
REMARK  209  A    between atoms: _550  and  _551
REMARK  210  A    between atoms: _550  and  _553
REMARK  211  A    between atoms: _553  and  _554
REMARK  212  A    between atoms: _559  and  _560
REMARK  213  A    between atoms: _562  and  _564
REMARK  214  A    between atoms: _564  and  _565
REMARK  215  A    between atoms: _564  and  _567
REMARK  216  A    between atoms: _567  and  _568
REMARK  217  A    between atoms: _568  and  _569
REMARK  218  A    between atoms: _569  and  _570
REMARK  219  A    between atoms: _579  and  _581
REMARK  220  A    between atoms: _581  and  _582
REMARK  221  A    between atoms: _581  and  _584
REMARK  222  A    between atoms: _584  and  _585
REMARK  223  A    between atoms: _590  and  _591
REMARK  224  A    between atoms: _593  and  _595
REMARK  225  A    between atoms: _595  and  _596
REMARK  226  A    between atoms: _595  and  _598
REMARK  227  A    between atoms: _598  and  _599
REMARK                            x       y       z     vdW  Elec       q    Type
REMARK                         _______ _______ _______ _____ _____    ______ ____
ROOT
ATOM      1  O   HOH     1      -9.243  26.914 -14.862  0.00  0.00    +0.000 OA
ENDROOT
TORSDOF 0
REMARK  Name = ../refined-set-2016/2xhm/2xhm_pocket.pdb
REMARK  227 active torsions:
REMARK  status: ('A' for Active; 'I' for Inactive)
REMARK    1  A    between atoms: _1  and  _3
REMARK    2  A    between atoms: _3  and  _4
REMARK    3  A    between atoms: _3  and  _6
REMARK    4  A    between atoms: _6  and  _7
REMARK    5  A    between atoms: _10  and  _12
REMARK    6  A    between atoms: _12  and  _13
REMARK    7  A    between atoms: _12  and  _15
REMARK    8  A    between atoms: _15  and  _16
REMARK    9  A    between atoms: _16  and  _17
REMARK   10  A    between atoms: _20  and  _22
REMARK   11  A    between atoms: _22  and  _23
REMARK   12  A    between atoms: _22  and  _25
REMARK   13  A    between atoms: _25  and  _26
REMARK   14  A    between atoms: _29  and  _31
REMARK   15  A    between atoms: _31  and  _32
REMARK   16  A    between atoms: _31  and  _34
REMARK   17  A    between atoms: _34  and  _35
REMARK   18  A    between atoms: _35  and  _36
REMARK   19  A    between atoms: _39  and  _41
REMARK   20  A    between atoms: _41  and  _42
REMARK   21  A    between atoms: _45  and  _47
REMARK   22  A    between atoms: _47  and  _48
REMARK   23  A    between atoms: _51  and  _53
REMARK   24  A    between atoms: _53  and  _54
REMARK   25  A    between atoms: _53  and  _56
REMARK   26  A    between atoms: _56  and  _57
REMARK   27  A    between atoms: _67  and  _69
REMARK   28  A    between atoms: _69  and  _70
REMARK   29  A    between atoms: _69  and  _72
REMARK   30  A    between atoms: _72  and  _73
REMARK   31  A    between atoms: _73  and  _74
REMARK   32  A    between atoms: _74  and  _75
REMARK   33  A    between atoms: _75  and  _76
REMARK   34  A    between atoms: _80  and  _82
REMARK   35  A    between atoms: _82  and  _83
REMARK   36  A    between atoms: _82  and  _85
REMARK   37  A    between atoms: _85  and  _86
REMARK   38  A    between atoms: _88  and  _90
REMARK   39  A    between atoms: _90  and  _91
REMARK   40  A    between atoms: _90  and  _93
REMARK   41  A    between atoms: _93  and  _94
REMARK   42  A    between atoms: _94  and  _95
REMARK   43  A    between atoms: _98  and  _100
REMARK   44  A    between atoms: _100  and  _101
REMARK   45  A    between atoms: _100  and  _103
REMARK   46  A    between atoms: _103  and  _104
REMARK   47  A    between atoms: _104  and  _105
REMARK   48  A    between atoms: _110  and  _112
REMARK   49  A    between atoms: _112  and  _113
REMARK   50  A    between atoms: _112  and  _115
REMARK   51  A    between atoms: _118  and  _120
REMARK   52  A    between atoms: _120  and  _121
REMARK   53  A    between atoms: _120  and  _123
REMARK   54  A    between atoms: _123  and  _124
REMARK   55  A    between atoms: _129  and  _131
REMARK   56  A    between atoms: _131  and  _132
REMARK   57  A    between atoms: _135  and  _137
REMARK   58  A    between atoms: _137  and  _138
REMARK   59  A    between atoms: _137  and  _140
REMARK   60  A    between atoms: _140  and  _141
REMARK   61  A    between atoms: _143  and  _145
REMARK   62  A    between atoms: _145  and  _146
REMARK   63  A    between atoms: _149  and  _151
REMARK   64  A    between atoms: _151  and  _152
REMARK   65  A    between atoms: _151  and  _154
REMARK   66  A    between atoms: _154  and  _155
REMARK   67  A    between atoms: _165  and  _167
REMARK   68  A    between atoms: _167  and  _168
REMARK   69  A    between atoms: _167  and  _170
REMARK   70  A    between atoms: _170  and  _171
REMARK   71  A    between atoms: _174  and  _176
REMARK   72  A    between atoms: _176  and  _177
REMARK   73  A    between atoms: _176  and  _179
REMARK   74  A    between atoms: _179  and  _180
REMARK   75  A    between atoms: _186  and  _188
REMARK   76  A    between atoms: _188  and  _189
REMARK   77  A    between atoms: _188  and  _191
REMARK   78  A    between atoms: _191  and  _192
REMARK   79  A    between atoms: _197  and  _198
REMARK   80  A    between atoms: _200  and  _202
REMARK   81  A    between atoms: _202  and  _203
REMARK   82  A    between atoms: _202  and  _205
REMARK   83  A    between atoms: _205  and  _206
REMARK   84  A    between atoms: _209  and  _211
REMARK   85  A    between atoms: _211  and  _212
REMARK   86  A    between atoms: _211  and  _214
REMARK   87  A    between atoms: _217  and  _219
REMARK   88  A    between atoms: _219  and  _220
REMARK   89  A    between atoms: _219  and  _222
REMARK   90  A    between atoms: _222  and  _223
REMARK   91  A    between atoms: _223  and  _224
REMARK   92  A    between atoms: _224  and  _225
REMARK   93  A    between atoms: _234  and  _236
REMARK   94  A    between atoms: _236  and  _237
REMARK   95  A    between atoms: _236  and  _239
REMARK   96  A    between atoms: _239  and  _240
REMARK   97  A    between atoms: _243  and  _245
REMARK   98  A    between atoms: _245  and  _246
REMARK   99  A    between atoms: _245  and  _248
REMARK  100  A    between atoms: _248  and  _249
REMARK  101  A    between atoms: _249  and  _250
REMARK  102  A    between atoms: _250  and  _251
REMARK  103  A    between atoms: _251  and  _252
REMARK  104  A    between atoms: _256  and  _258
REMARK  105  A    between atoms: _258  and  _259
REMARK  106  A    between atoms: _258  and  _261
REMARK  107  A    between atoms: _261  and  _262
REMARK  108  A    between atoms: _262  and  _263
REMARK  109  A    between atoms: _268  and  _270
REMARK  110  A    between atoms: _270  and  _271
REMARK  111  A    between atoms: _270  and  _273
REMARK  112  A    between atoms: _273  and  _274
REMARK  113  A    between atoms: _277  and  _279
REMARK  114  A    between atoms: _290  and  _293
REMARK  115  A    between atoms: _293  and  _294
REMARK  116  A    between atoms: _294  and  _295
REMARK  117  A    between atoms: _300  and  _303
REMARK  118  A    between atoms: _303  and  _304
REMARK  119  A    between atoms: _314  and  _315
REMARK  120  A    between atoms: _323  and  _325
REMARK  121  A    between atoms: _325  and  _326
REMARK  122  A    between atoms: _325  and  _328
REMARK  123  A    between atoms: _328  and  _329
REMARK  124  A    between atoms: _332  and  _334
REMARK  125  A    between atoms: _334  and  _335
REMARK  126  A    between atoms: _334  and  _337
REMARK  127  A    between atoms: _337  and  _338
REMARK  128  A    between atoms: _343  and  _344
REMARK  129  A    between atoms: _346  and  _348
REMARK  130  A    between atoms: _348  and  _349
REMARK  131  A    between atoms: _348  and  _351
REMARK  132  A    between atoms: _351  and  _352
REMARK  133  A    between atoms: _358  and  _360
REMARK  134  A    between atoms: _360  and  _361
REMARK  135  A    between atoms: _360  and  _363
REMARK  136  A    between atoms: _363  and  _364
REMARK  137  A    between atoms: _369  and  _370
REMARK  138  A    between atoms: _372  and  _374
REMARK  139  A    between atoms: _374  and  _375
REMARK  140  A    between atoms: _374  and  _377
REMARK  141  A    between atoms: _377  and  _378
REMARK  142  A    between atoms: _384  and  _386
REMARK  143  A    between atoms: _386  and  _387
REMARK  144  A    between atoms: _386  and  _389
REMARK  145  A    between atoms: _389  and  _390
REMARK  146  A    between atoms: _390  and  _391
REMARK  147  A    between atoms: _391  and  _392
REMARK  148  A    between atoms: _401  and  _403
REMARK  149  A    between atoms: _403  and  _404
REMARK  150  A    between atoms: _403  and  _406
REMARK  151  A    between atoms: _406  and  _407
REMARK  152  A    between atoms: _410  and  _412
REMARK  153  A    between atoms: _412  and  _413
REMARK  154  A    between atoms: _415  and  _417
REMARK  155  A    between atoms: _417  and  _418
REMARK  156  A    between atoms: _421  and  _423
REMARK  157  A    between atoms: _423  and  _424
REMARK  158  A    between atoms: _423  and  _426
REMARK  159  A    between atoms: _426  and  _427
REMARK  160  A    between atoms: _433  and  _434
REMARK  161  A    between atoms: _439  and  _441
REMARK  162  A    between atoms: _441  and  _442
REMARK  163  A    between atoms: _444  and  _446
REMARK  164  A    between atoms: _446  and  _447
REMARK  165  A    between atoms: _446  and  _449
REMARK  166  A    between atoms: _449  and  _450
REMARK  167  A    between atoms: _456  and  _458
REMARK  168  A    between atoms: _458  and  _459
REMARK  169  A    between atoms: _458  and  _461
REMARK  170  A    between atoms: _461  and  _462
REMARK  171  A    between atoms: _467  and  _469
REMARK  172  A    between atoms: _469  and  _470
REMARK  173  A    between atoms: _469  and  _472
REMARK  174  A    between atoms: _472  and  _473
REMARK  175  A    between atoms: _473  and  _474
REMARK  176  A    between atoms: _474  and  _475
REMARK  177  A    between atoms: _475  and  ZN_601
REMARK  178  A    between atoms: _477  and  _479
REMARK  179  A    between atoms: _479  and  _480
REMARK  180  A    between atoms: _479  and  _482
REMARK  181  A    between atoms: _482  and  _483
REMARK  182  A    between atoms: _483  and  _484
REMARK  183  A    between atoms: _484  and  _485
REMARK  184  A    between atoms: _485  and  _486
REMARK  185  A    between atoms: _490  and  _492
REMARK  186  A    between atoms: _492  and  _493
REMARK  187  A    between atoms: _492  and  _495
REMARK  188  A    between atoms: _495  and  _496
REMARK  189  A    between atoms: _501  and  _502
REMARK  190  A    between atoms: _504  and  _506
REMARK  191  A    between atoms: _506  and  _507
REMARK  192  A    between atoms: _506  and  _509
REMARK  193  A    between atoms: _509  and  _510
REMARK  194  A    between atoms: _515  and  _517
REMARK  195  A    between atoms: _517  and  _518
REMARK  196  A    between atoms: _521  and  _523
REMARK  197  A    between atoms: _523  and  _524
REMARK  198  A    between atoms: _523  and  _526
REMARK  199  A    between atoms: _526  and  _527
REMARK  200  A    between atoms: _530  and  _532
REMARK  201  A    between atoms: _532  and  _533
REMARK  202  A    between atoms: _532  and  _535
REMARK  203  A    between atoms: _538  and  _540
REMARK  204  A    between atoms: _540  and  _541
REMARK  205  A    between atoms: _540  and  _543
REMARK  206  A    between atoms: _543  and  _544
REMARK  207  A    between atoms: _544  and  _545
REMARK  208  A    between atoms: _548  and  _550
REMARK  209  A    between atoms: _550  and  _551
REMARK  210  A    between atoms: _550  and  _553
REMARK  211  A    between atoms: _553  and  _554
REMARK  212  A    between atoms: _559  and  _560
REMARK  213  A    between atoms: _562  and  _564
REMARK  214  A    between atoms: _564  and  _565
REMARK  215  A    between atoms: _564  and  _567
REMARK  216  A    between atoms: _567  and  _568
REMARK  217  A    between atoms: _568  and  _569
REMARK  218  A    between atoms: _569  and  _570
REMARK  219  A    between atoms: _579  and  _581
REMARK  220  A    between atoms: _581  and  _582
REMARK  221  A    between atoms: _581  and  _584
REMARK  222  A    between atoms: _584  and  _585
REMARK  223  A    between atoms: _590  and  _591
REMARK  224  A    between atoms: _593  and  _595
REMARK  225  A    between atoms: _595  and  _596
REMARK  226  A    between atoms: _595  and  _598
REMARK  227  A    between atoms: _598  and  _599
REMARK                            x       y       z     vdW  Elec       q    Type
REMARK                         _______ _______ _______ _____ _____    ______ ____
ROOT
ATOM      1  O   HOH     1      -5.418  24.446 -18.894  0.00  0.00    +0.000 OA
ENDROOT
TORSDOF 0
REMARK  Name = ../refined-set-2016/2xhm/2xhm_pocket.pdb
REMARK  227 active torsions:
REMARK  status: ('A' for Active; 'I' for Inactive)
REMARK    1  A    between atoms: _1  and  _3
REMARK    2  A    between atoms: _3  and  _4
REMARK    3  A    between atoms: _3  and  _6
REMARK    4  A    between atoms: _6  and  _7
REMARK    5  A    between atoms: _10  and  _12
REMARK    6  A    between atoms: _12  and  _13
REMARK    7  A    between atoms: _12  and  _15
REMARK    8  A    between atoms: _15  and  _16
REMARK    9  A    between atoms: _16  and  _17
REMARK   10  A    between atoms: _20  and  _22
REMARK   11  A    between atoms: _22  and  _23
REMARK   12  A    between atoms: _22  and  _25
REMARK   13  A    between atoms: _25  and  _26
REMARK   14  A    between atoms: _29  and  _31
REMARK   15  A    between atoms: _31  and  _32
REMARK   16  A    between atoms: _31  and  _34
REMARK   17  A    between atoms: _34  and  _35
REMARK   18  A    between atoms: _35  and  _36
REMARK   19  A    between atoms: _39  and  _41
REMARK   20  A    between atoms: _41  and  _42
REMARK   21  A    between atoms: _45  and  _47
REMARK   22  A    between atoms: _47  and  _48
REMARK   23  A    between atoms: _51  and  _53
REMARK   24  A    between atoms: _53  and  _54
REMARK   25  A    between atoms: _53  and  _56
REMARK   26  A    between atoms: _56  and  _57
REMARK   27  A    between atoms: _67  and  _69
REMARK   28  A    between atoms: _69  and  _70
REMARK   29  A    between atoms: _69  and  _72
REMARK   30  A    between atoms: _72  and  _73
REMARK   31  A    between atoms: _73  and  _74
REMARK   32  A    between atoms: _74  and  _75
REMARK   33  A    between atoms: _75  and  _76
REMARK   34  A    between atoms: _80  and  _82
REMARK   35  A    between atoms: _82  and  _83
REMARK   36  A    between atoms: _82  and  _85
REMARK   37  A    between atoms: _85  and  _86
REMARK   38  A    between atoms: _88  and  _90
REMARK   39  A    between atoms: _90  and  _91
REMARK   40  A    between atoms: _90  and  _93
REMARK   41  A    between atoms: _93  and  _94
REMARK   42  A    between atoms: _94  and  _95
REMARK   43  A    between atoms: _98  and  _100
REMARK   44  A    between atoms: _100  and  _101
REMARK   45  A    between atoms: _100  and  _103
REMARK   46  A    between atoms: _103  and  _104
REMARK   47  A    between atoms: _104  and  _105
REMARK   48  A    between atoms: _110  and  _112
REMARK   49  A    between atoms: _112  and  _113
REMARK   50  A    between atoms: _112  and  _115
REMARK   51  A    between atoms: _118  and  _120
REMARK   52  A    between atoms: _120  and  _121
REMARK   53  A    between atoms: _120  and  _123
REMARK   54  A    between atoms: _123  and  _124
REMARK   55  A    between atoms: _129  and  _131
REMARK   56  A    between atoms: _131  and  _132
REMARK   57  A    between atoms: _135  and  _137
REMARK   58  A    between atoms: _137  and  _138
REMARK   59  A    between atoms: _137  and  _140
REMARK   60  A    between atoms: _140  and  _141
REMARK   61  A    between atoms: _143  and  _145
REMARK   62  A    between atoms: _145  and  _146
REMARK   63  A    between atoms: _149  and  _151
REMARK   64  A    between atoms: _151  and  _152
REMARK   65  A    between atoms: _151  and  _154
REMARK   66  A    between atoms: _154  and  _155
REMARK   67  A    between atoms: _165  and  _167
REMARK   68  A    between atoms: _167  and  _168
REMARK   69  A    between atoms: _167  and  _170
REMARK   70  A    between atoms: _170  and  _171
REMARK   71  A    between atoms: _174  and  _176
REMARK   72  A    between atoms: _176  and  _177
REMARK   73  A    between atoms: _176  and  _179
REMARK   74  A    between atoms: _179  and  _180
REMARK   75  A    between atoms: _186  and  _188
REMARK   76  A    between atoms: _188  and  _189
REMARK   77  A    between atoms: _188  and  _191
REMARK   78  A    between atoms: _191  and  _192
REMARK   79  A    between atoms: _197  and  _198
REMARK   80  A    between atoms: _200  and  _202
REMARK   81  A    between atoms: _202  and  _203
REMARK   82  A    between atoms: _202  and  _205
REMARK   83  A    between atoms: _205  and  _206
REMARK   84  A    between atoms: _209  and  _211
REMARK   85  A    between atoms: _211  and  _212
REMARK   86  A    between atoms: _211  and  _214
REMARK   87  A    between atoms: _217  and  _219
REMARK   88  A    between atoms: _219  and  _220
REMARK   89  A    between atoms: _219  and  _222
REMARK   90  A    between atoms: _222  and  _223
REMARK   91  A    between atoms: _223  and  _224
REMARK   92  A    between atoms: _224  and  _225
REMARK   93  A    between atoms: _234  and  _236
REMARK   94  A    between atoms: _236  and  _237
REMARK   95  A    between atoms: _236  and  _239
REMARK   96  A    between atoms: _239  and  _240
REMARK   97  A    between atoms: _243  and  _245
REMARK   98  A    between atoms: _245  and  _246
REMARK   99  A    between atoms: _245  and  _248
REMARK  100  A    between atoms: _248  and  _249
REMARK  101  A    between atoms: _249  and  _250
REMARK  102  A    between atoms: _250  and  _251
REMARK  103  A    between atoms: _251  and  _252
REMARK  104  A    between atoms: _256  and  _258
REMARK  105  A    between atoms: _258  and  _259
REMARK  106  A    between atoms: _258  and  _261
REMARK  107  A    between atoms: _261  and  _262
REMARK  108  A    between atoms: _262  and  _263
REMARK  109  A    between atoms: _268  and  _270
REMARK  110  A    between atoms: _270  and  _271
REMARK  111  A    between atoms: _270  and  _273
REMARK  112  A    between atoms: _273  and  _274
REMARK  113  A    between atoms: _277  and  _279
REMARK  114  A    between atoms: _290  and  _293
REMARK  115  A    between atoms: _293  and  _294
REMARK  116  A    between atoms: _294  and  _295
REMARK  117  A    between atoms: _300  and  _303
REMARK  118  A    between atoms: _303  and  _304
REMARK  119  A    between atoms: _314  and  _315
REMARK  120  A    between atoms: _323  and  _325
REMARK  121  A    between atoms: _325  and  _326
REMARK  122  A    between atoms: _325  and  _328
REMARK  123  A    between atoms: _328  and  _329
REMARK  124  A    between atoms: _332  and  _334
REMARK  125  A    between atoms: _334  and  _335
REMARK  126  A    between atoms: _334  and  _337
REMARK  127  A    between atoms: _337  and  _338
REMARK  128  A    between atoms: _343  and  _344
REMARK  129  A    between atoms: _346  and  _348
REMARK  130  A    between atoms: _348  and  _349
REMARK  131  A    between atoms: _348  and  _351
REMARK  132  A    between atoms: _351  and  _352
REMARK  133  A    between atoms: _358  and  _360
REMARK  134  A    between atoms: _360  and  _361
REMARK  135  A    between atoms: _360  and  _363
REMARK  136  A    between atoms: _363  and  _364
REMARK  137  A    between atoms: _369  and  _370
REMARK  138  A    between atoms: _372  and  _374
REMARK  139  A    between atoms: _374  and  _375
REMARK  140  A    between atoms: _374  and  _377
REMARK  141  A    between atoms: _377  and  _378
REMARK  142  A    between atoms: _384  and  _386
REMARK  143  A    between atoms: _386  and  _387
REMARK  144  A    between atoms: _386  and  _389
REMARK  145  A    between atoms: _389  and  _390
REMARK  146  A    between atoms: _390  and  _391
REMARK  147  A    between atoms: _391  and  _392
REMARK  148  A    between atoms: _401  and  _403
REMARK  149  A    between atoms: _403  and  _404
REMARK  150  A    between atoms: _403  and  _406
REMARK  151  A    between atoms: _406  and  _407
REMARK  152  A    between atoms: _410  and  _412
REMARK  153  A    between atoms: _412  and  _413
REMARK  154  A    between atoms: _415  and  _417
REMARK  155  A    between atoms: _417  and  _418
REMARK  156  A    between atoms: _421  and  _423
REMARK  157  A    between atoms: _423  and  _424
REMARK  158  A    between atoms: _423  and  _426
REMARK  159  A    between atoms: _426  and  _427
REMARK  160  A    between atoms: _433  and  _434
REMARK  161  A    between atoms: _439  and  _441
REMARK  162  A    between atoms: _441  and  _442
REMARK  163  A    between atoms: _444  and  _446
REMARK  164  A    between atoms: _446  and  _447
REMARK  165  A    between atoms: _446  and  _449
REMARK  166  A    between atoms: _449  and  _450
REMARK  167  A    between atoms: _456  and  _458
REMARK  168  A    between atoms: _458  and  _459
REMARK  169  A    between atoms: _458  and  _461
REMARK  170  A    between atoms: _461  and  _462
REMARK  171  A    between atoms: _467  and  _469
REMARK  172  A    between atoms: _469  and  _470
REMARK  173  A    between atoms: _469  and  _472
REMARK  174  A    between atoms: _472  and  _473
REMARK  175  A    between atoms: _473  and  _474
REMARK  176  A    between atoms: _474  and  _475
REMARK  177  A    between atoms: _475  and  ZN_601
REMARK  178  A    between atoms: _477  and  _479
REMARK  179  A    between atoms: _479  and  _480
REMARK  180  A    between atoms: _479  and  _482
REMARK  181  A    between atoms: _482  and  _483
REMARK  182  A    between atoms: _483  and  _484
REMARK  183  A    between atoms: _484  and  _485
REMARK  184  A    between atoms: _485  and  _486
REMARK  185  A    between atoms: _490  and  _492
REMARK  186  A    between atoms: _492  and  _493
REMARK  187  A    between atoms: _492  and  _495
REMARK  188  A    between atoms: _495  and  _496
REMARK  189  A    between atoms: _501  and  _502
REMARK  190  A    between atoms: _504  and  _506
REMARK  191  A    between atoms: _506  and  _507
REMARK  192  A    between atoms: _506  and  _509
REMARK  193  A    between atoms: _509  and  _510
REMARK  194  A    between atoms: _515  and  _517
REMARK  195  A    between atoms: _517  and  _518
REMARK  196  A    between atoms: _521  and  _523
REMARK  197  A    between atoms: _523  and  _524
REMARK  198  A    between atoms: _523  and  _526
REMARK  199  A    between atoms: _526  and  _527
REMARK  200  A    between atoms: _530  and  _532
REMARK  201  A    between atoms: _532  and  _533
REMARK  202  A    between atoms: _532  and  _535
REMARK  203  A    between atoms: _538  and  _540
REMARK  204  A    between atoms: _540  and  _541
REMARK  205  A    between atoms: _540  and  _543
REMARK  206  A    between atoms: _543  and  _544
REMARK  207  A    between atoms: _544  and  _545
REMARK  208  A    between atoms: _548  and  _550
REMARK  209  A    between atoms: _550  and  _551
REMARK  210  A    between atoms: _550  and  _553
REMARK  211  A    between atoms: _553  and  _554
REMARK  212  A    between atoms: _559  and  _560
REMARK  213  A    between atoms: _562  and  _564
REMARK  214  A    between atoms: _564  and  _565
REMARK  215  A    between atoms: _564  and  _567
REMARK  216  A    between atoms: _567  and  _568
REMARK  217  A    between atoms: _568  and  _569
REMARK  218  A    between atoms: _569  and  _570
REMARK  219  A    between atoms: _579  and  _581
REMARK  220  A    between atoms: _581  and  _582
REMARK  221  A    between atoms: _581  and  _584
REMARK  222  A    between atoms: _584  and  _585
REMARK  223  A    between atoms: _590  and  _591
REMARK  224  A    between atoms: _593  and  _595
REMARK  225  A    between atoms: _595  and  _596
REMARK  226  A    between atoms: _595  and  _598
REMARK  227  A    between atoms: _598  and  _599
REMARK                            x       y       z     vdW  Elec       q    Type
REMARK                         _______ _______ _______ _____ _____    ______ ____
ROOT
ATOM      1  O   HOH     1      -6.831  28.453 -10.665  0.00  0.00    +0.000 OA
ENDROOT
TORSDOF 0
REMARK  Name = ../refined-set-2016/2xhm/2xhm_pocket.pdb
REMARK  227 active torsions:
REMARK  status: ('A' for Active; 'I' for Inactive)
REMARK    1  A    between atoms: _1  and  _3
REMARK    2  A    between atoms: _3  and  _4
REMARK    3  A    between atoms: _3  and  _6
REMARK    4  A    between atoms: _6  and  _7
REMARK    5  A    between atoms: _10  and  _12
REMARK    6  A    between atoms: _12  and  _13
REMARK    7  A    between atoms: _12  and  _15
REMARK    8  A    between atoms: _15  and  _16
REMARK    9  A    between atoms: _16  and  _17
REMARK   10  A    between atoms: _20  and  _22
REMARK   11  A    between atoms: _22  and  _23
REMARK   12  A    between atoms: _22  and  _25
REMARK   13  A    between atoms: _25  and  _26
REMARK   14  A    between atoms: _29  and  _31
REMARK   15  A    between atoms: _31  and  _32
REMARK   16  A    between atoms: _31  and  _34
REMARK   17  A    between atoms: _34  and  _35
REMARK   18  A    between atoms: _35  and  _36
REMARK   19  A    between atoms: _39  and  _41
REMARK   20  A    between atoms: _41  and  _42
REMARK   21  A    between atoms: _45  and  _47
REMARK   22  A    between atoms: _47  and  _48
REMARK   23  A    between atoms: _51  and  _53
REMARK   24  A    between atoms: _53  and  _54
REMARK   25  A    between atoms: _53  and  _56
REMARK   26  A    between atoms: _56  and  _57
REMARK   27  A    between atoms: _67  and  _69
REMARK   28  A    between atoms: _69  and  _70
REMARK   29  A    between atoms: _69  and  _72
REMARK   30  A    between atoms: _72  and  _73
REMARK   31  A    between atoms: _73  and  _74
REMARK   32  A    between atoms: _74  and  _75
REMARK   33  A    between atoms: _75  and  _76
REMARK   34  A    between atoms: _80  and  _82
REMARK   35  A    between atoms: _82  and  _83
REMARK   36  A    between atoms: _82  and  _85
REMARK   37  A    between atoms: _85  and  _86
REMARK   38  A    between atoms: _88  and  _90
REMARK   39  A    between atoms: _90  and  _91
REMARK   40  A    between atoms: _90  and  _93
REMARK   41  A    between atoms: _93  and  _94
REMARK   42  A    between atoms: _94  and  _95
REMARK   43  A    between atoms: _98  and  _100
REMARK   44  A    between atoms: _100  and  _101
REMARK   45  A    between atoms: _100  and  _103
REMARK   46  A    between atoms: _103  and  _104
REMARK   47  A    between atoms: _104  and  _105
REMARK   48  A    between atoms: _110  and  _112
REMARK   49  A    between atoms: _112  and  _113
REMARK   50  A    between atoms: _112  and  _115
REMARK   51  A    between atoms: _118  and  _120
REMARK   52  A    between atoms: _120  and  _121
REMARK   53  A    between atoms: _120  and  _123
REMARK   54  A    between atoms: _123  and  _124
REMARK   55  A    between atoms: _129  and  _131
REMARK   56  A    between atoms: _131  and  _132
REMARK   57  A    between atoms: _135  and  _137
REMARK   58  A    between atoms: _137  and  _138
REMARK   59  A    between atoms: _137  and  _140
REMARK   60  A    between atoms: _140  and  _141
REMARK   61  A    between atoms: _143  and  _145
REMARK   62  A    between atoms: _145  and  _146
REMARK   63  A    between atoms: _149  and  _151
REMARK   64  A    between atoms: _151  and  _152
REMARK   65  A    between atoms: _151  and  _154
REMARK   66  A    between atoms: _154  and  _155
REMARK   67  A    between atoms: _165  and  _167
REMARK   68  A    between atoms: _167  and  _168
REMARK   69  A    between atoms: _167  and  _170
REMARK   70  A    between atoms: _170  and  _171
REMARK   71  A    between atoms: _174  and  _176
REMARK   72  A    between atoms: _176  and  _177
REMARK   73  A    between atoms: _176  and  _179
REMARK   74  A    between atoms: _179  and  _180
REMARK   75  A    between atoms: _186  and  _188
REMARK   76  A    between atoms: _188  and  _189
REMARK   77  A    between atoms: _188  and  _191
REMARK   78  A    between atoms: _191  and  _192
REMARK   79  A    between atoms: _197  and  _198
REMARK   80  A    between atoms: _200  and  _202
REMARK   81  A    between atoms: _202  and  _203
REMARK   82  A    between atoms: _202  and  _205
REMARK   83  A    between atoms: _205  and  _206
REMARK   84  A    between atoms: _209  and  _211
REMARK   85  A    between atoms: _211  and  _212
REMARK   86  A    between atoms: _211  and  _214
REMARK   87  A    between atoms: _217  and  _219
REMARK   88  A    between atoms: _219  and  _220
REMARK   89  A    between atoms: _219  and  _222
REMARK   90  A    between atoms: _222  and  _223
REMARK   91  A    between atoms: _223  and  _224
REMARK   92  A    between atoms: _224  and  _225
REMARK   93  A    between atoms: _234  and  _236
REMARK   94  A    between atoms: _236  and  _237
REMARK   95  A    between atoms: _236  and  _239
REMARK   96  A    between atoms: _239  and  _240
REMARK   97  A    between atoms: _243  and  _245
REMARK   98  A    between atoms: _245  and  _246
REMARK   99  A    between atoms: _245  and  _248
REMARK  100  A    between atoms: _248  and  _249
REMARK  101  A    between atoms: _249  and  _250
REMARK  102  A    between atoms: _250  and  _251
REMARK  103  A    between atoms: _251  and  _252
REMARK  104  A    between atoms: _256  and  _258
REMARK  105  A    between atoms: _258  and  _259
REMARK  106  A    between atoms: _258  and  _261
REMARK  107  A    between atoms: _261  and  _262
REMARK  108  A    between atoms: _262  and  _263
REMARK  109  A    between atoms: _268  and  _270
REMARK  110  A    between atoms: _270  and  _271
REMARK  111  A    between atoms: _270  and  _273
REMARK  112  A    between atoms: _273  and  _274
REMARK  113  A    between atoms: _277  and  _279
REMARK  114  A    between atoms: _290  and  _293
REMARK  115  A    between atoms: _293  and  _294
REMARK  116  A    between atoms: _294  and  _295
REMARK  117  A    between atoms: _300  and  _303
REMARK  118  A    between atoms: _303  and  _304
REMARK  119  A    between atoms: _314  and  _315
REMARK  120  A    between atoms: _323  and  _325
REMARK  121  A    between atoms: _325  and  _326
REMARK  122  A    between atoms: _325  and  _328
REMARK  123  A    between atoms: _328  and  _329
REMARK  124  A    between atoms: _332  and  _334
REMARK  125  A    between atoms: _334  and  _335
REMARK  126  A    between atoms: _334  and  _337
REMARK  127  A    between atoms: _337  and  _338
REMARK  128  A    between atoms: _343  and  _344
REMARK  129  A    between atoms: _346  and  _348
REMARK  130  A    between atoms: _348  and  _349
REMARK  131  A    between atoms: _348  and  _351
REMARK  132  A    between atoms: _351  and  _352
REMARK  133  A    between atoms: _358  and  _360
REMARK  134  A    between atoms: _360  and  _361
REMARK  135  A    between atoms: _360  and  _363
REMARK  136  A    between atoms: _363  and  _364
REMARK  137  A    between atoms: _369  and  _370
REMARK  138  A    between atoms: _372  and  _374
REMARK  139  A    between atoms: _374  and  _375
REMARK  140  A    between atoms: _374  and  _377
REMARK  141  A    between atoms: _377  and  _378
REMARK  142  A    between atoms: _384  and  _386
REMARK  143  A    between atoms: _386  and  _387
REMARK  144  A    between atoms: _386  and  _389
REMARK  145  A    between atoms: _389  and  _390
REMARK  146  A    between atoms: _390  and  _391
REMARK  147  A    between atoms: _391  and  _392
REMARK  148  A    between atoms: _401  and  _403
REMARK  149  A    between atoms: _403  and  _404
REMARK  150  A    between atoms: _403  and  _406
REMARK  151  A    between atoms: _406  and  _407
REMARK  152  A    between atoms: _410  and  _412
REMARK  153  A    between atoms: _412  and  _413
REMARK  154  A    between atoms: _415  and  _417
REMARK  155  A    between atoms: _417  and  _418
REMARK  156  A    between atoms: _421  and  _423
REMARK  157  A    between atoms: _423  and  _424
REMARK  158  A    between atoms: _423  and  _426
REMARK  159  A    between atoms: _426  and  _427
REMARK  160  A    between atoms: _433  and  _434
REMARK  161  A    between atoms: _439  and  _441
REMARK  162  A    between atoms: _441  and  _442
REMARK  163  A    between atoms: _444  and  _446
REMARK  164  A    between atoms: _446  and  _447
REMARK  165  A    between atoms: _446  and  _449
REMARK  166  A    between atoms: _449  and  _450
REMARK  167  A    between atoms: _456  and  _458
REMARK  168  A    between atoms: _458  and  _459
REMARK  169  A    between atoms: _458  and  _461
REMARK  170  A    between atoms: _461  and  _462
REMARK  171  A    between atoms: _467  and  _469
REMARK  172  A    between atoms: _469  and  _470
REMARK  173  A    between atoms: _469  and  _472
REMARK  174  A    between atoms: _472  and  _473
REMARK  175  A    between atoms: _473  and  _474
REMARK  176  A    between atoms: _474  and  _475
REMARK  177  A    between atoms: _475  and  ZN_601
REMARK  178  A    between atoms: _477  and  _479
REMARK  179  A    between atoms: _479  and  _480
REMARK  180  A    between atoms: _479  and  _482
REMARK  181  A    between atoms: _482  and  _483
REMARK  182  A    between atoms: _483  and  _484
REMARK  183  A    between atoms: _484  and  _485
REMARK  184  A    between atoms: _485  and  _486
REMARK  185  A    between atoms: _490  and  _492
REMARK  186  A    between atoms: _492  and  _493
REMARK  187  A    between atoms: _492  and  _495
REMARK  188  A    between atoms: _495  and  _496
REMARK  189  A    between atoms: _501  and  _502
REMARK  190  A    between atoms: _504  and  _506
REMARK  191  A    between atoms: _506  and  _507
REMARK  192  A    between atoms: _506  and  _509
REMARK  193  A    between atoms: _509  and  _510
REMARK  194  A    between atoms: _515  and  _517
REMARK  195  A    between atoms: _517  and  _518
REMARK  196  A    between atoms: _521  and  _523
REMARK  197  A    between atoms: _523  and  _524
REMARK  198  A    between atoms: _523  and  _526
REMARK  199  A    between atoms: _526  and  _527
REMARK  200  A    between atoms: _530  and  _532
REMARK  201  A    between atoms: _532  and  _533
REMARK  202  A    between atoms: _532  and  _535
REMARK  203  A    between atoms: _538  and  _540
REMARK  204  A    between atoms: _540  and  _541
REMARK  205  A    between atoms: _540  and  _543
REMARK  206  A    between atoms: _543  and  _544
REMARK  207  A    between atoms: _544  and  _545
REMARK  208  A    between atoms: _548  and  _550
REMARK  209  A    between atoms: _550  and  _551
REMARK  210  A    between atoms: _550  and  _553
REMARK  211  A    between atoms: _553  and  _554
REMARK  212  A    between atoms: _559  and  _560
REMARK  213  A    between atoms: _562  and  _564
REMARK  214  A    between atoms: _564  and  _565
REMARK  215  A    between atoms: _564  and  _567
REMARK  216  A    between atoms: _567  and  _568
REMARK  217  A    between atoms: _568  and  _569
REMARK  218  A    between atoms: _569  and  _570
REMARK  219  A    between atoms: _579  and  _581
REMARK  220  A    between atoms: _581  and  _582
REMARK  221  A    between atoms: _581  and  _584
REMARK  222  A    between atoms: _584  and  _585
REMARK  223  A    between atoms: _590  and  _591
REMARK  224  A    between atoms: _593  and  _595
REMARK  225  A    between atoms: _595  and  _596
REMARK  226  A    between atoms: _595  and  _598
REMARK  227  A    between atoms: _598  and  _599
REMARK                            x       y       z     vdW  Elec       q    Type
REMARK                         _______ _______ _______ _____ _____    ______ ____
ROOT
ATOM      1  O   HOH     1      -6.012  26.088 -15.944  0.00  0.00    +0.000 OA
ENDROOT
TORSDOF 0
REMARK  Name = ../refined-set-2016/2xhm/2xhm_pocket.pdb
REMARK  227 active torsions:
REMARK  status: ('A' for Active; 'I' for Inactive)
REMARK    1  A    between atoms: _1  and  _3
REMARK    2  A    between atoms: _3  and  _4
REMARK    3  A    between atoms: _3  and  _6
REMARK    4  A    between atoms: _6  and  _7
REMARK    5  A    between atoms: _10  and  _12
REMARK    6  A    between atoms: _12  and  _13
REMARK    7  A    between atoms: _12  and  _15
REMARK    8  A    between atoms: _15  and  _16
REMARK    9  A    between atoms: _16  and  _17
REMARK   10  A    between atoms: _20  and  _22
REMARK   11  A    between atoms: _22  and  _23
REMARK   12  A    between atoms: _22  and  _25
REMARK   13  A    between atoms: _25  and  _26
REMARK   14  A    between atoms: _29  and  _31
REMARK   15  A    between atoms: _31  and  _32
REMARK   16  A    between atoms: _31  and  _34
REMARK   17  A    between atoms: _34  and  _35
REMARK   18  A    between atoms: _35  and  _36
REMARK   19  A    between atoms: _39  and  _41
REMARK   20  A    between atoms: _41  and  _42
REMARK   21  A    between atoms: _45  and  _47
REMARK   22  A    between atoms: _47  and  _48
REMARK   23  A    between atoms: _51  and  _53
REMARK   24  A    between atoms: _53  and  _54
REMARK   25  A    between atoms: _53  and  _56
REMARK   26  A    between atoms: _56  and  _57
REMARK   27  A    between atoms: _67  and  _69
REMARK   28  A    between atoms: _69  and  _70
REMARK   29  A    between atoms: _69  and  _72
REMARK   30  A    between atoms: _72  and  _73
REMARK   31  A    between atoms: _73  and  _74
REMARK   32  A    between atoms: _74  and  _75
REMARK   33  A    between atoms: _75  and  _76
REMARK   34  A    between atoms: _80  and  _82
REMARK   35  A    between atoms: _82  and  _83
REMARK   36  A    between atoms: _82  and  _85
REMARK   37  A    between atoms: _85  and  _86
REMARK   38  A    between atoms: _88  and  _90
REMARK   39  A    between atoms: _90  and  _91
REMARK   40  A    between atoms: _90  and  _93
REMARK   41  A    between atoms: _93  and  _94
REMARK   42  A    between atoms: _94  and  _95
REMARK   43  A    between atoms: _98  and  _100
REMARK   44  A    between atoms: _100  and  _101
REMARK   45  A    between atoms: _100  and  _103
REMARK   46  A    between atoms: _103  and  _104
REMARK   47  A    between atoms: _104  and  _105
REMARK   48  A    between atoms: _110  and  _112
REMARK   49  A    between atoms: _112  and  _113
REMARK   50  A    between atoms: _112  and  _115
REMARK   51  A    between atoms: _118  and  _120
REMARK   52  A    between atoms: _120  and  _121
REMARK   53  A    between atoms: _120  and  _123
REMARK   54  A    between atoms: _123  and  _124
REMARK   55  A    between atoms: _129  and  _131
REMARK   56  A    between atoms: _131  and  _132
REMARK   57  A    between atoms: _135  and  _137
REMARK   58  A    between atoms: _137  and  _138
REMARK   59  A    between atoms: _137  and  _140
REMARK   60  A    between atoms: _140  and  _141
REMARK   61  A    between atoms: _143  and  _145
REMARK   62  A    between atoms: _145  and  _146
REMARK   63  A    between atoms: _149  and  _151
REMARK   64  A    between atoms: _151  and  _152
REMARK   65  A    between atoms: _151  and  _154
REMARK   66  A    between atoms: _154  and  _155
REMARK   67  A    between atoms: _165  and  _167
REMARK   68  A    between atoms: _167  and  _168
REMARK   69  A    between atoms: _167  and  _170
REMARK   70  A    between atoms: _170  and  _171
REMARK   71  A    between atoms: _174  and  _176
REMARK   72  A    between atoms: _176  and  _177
REMARK   73  A    between atoms: _176  and  _179
REMARK   74  A    between atoms: _179  and  _180
REMARK   75  A    between atoms: _186  and  _188
REMARK   76  A    between atoms: _188  and  _189
REMARK   77  A    between atoms: _188  and  _191
REMARK   78  A    between atoms: _191  and  _192
REMARK   79  A    between atoms: _197  and  _198
REMARK   80  A    between atoms: _200  and  _202
REMARK   81  A    between atoms: _202  and  _203
REMARK   82  A    between atoms: _202  and  _205
REMARK   83  A    between atoms: _205  and  _206
REMARK   84  A    between atoms: _209  and  _211
REMARK   85  A    between atoms: _211  and  _212
REMARK   86  A    between atoms: _211  and  _214
REMARK   87  A    between atoms: _217  and  _219
REMARK   88  A    between atoms: _219  and  _220
REMARK   89  A    between atoms: _219  and  _222
REMARK   90  A    between atoms: _222  and  _223
REMARK   91  A    between atoms: _223  and  _224
REMARK   92  A    between atoms: _224  and  _225
REMARK   93  A    between atoms: _234  and  _236
REMARK   94  A    between atoms: _236  and  _237
REMARK   95  A    between atoms: _236  and  _239
REMARK   96  A    between atoms: _239  and  _240
REMARK   97  A    between atoms: _243  and  _245
REMARK   98  A    between atoms: _245  and  _246
REMARK   99  A    between atoms: _245  and  _248
REMARK  100  A    between atoms: _248  and  _249
REMARK  101  A    between atoms: _249  and  _250
REMARK  102  A    between atoms: _250  and  _251
REMARK  103  A    between atoms: _251  and  _252
REMARK  104  A    between atoms: _256  and  _258
REMARK  105  A    between atoms: _258  and  _259
REMARK  106  A    between atoms: _258  and  _261
REMARK  107  A    between atoms: _261  and  _262
REMARK  108  A    between atoms: _262  and  _263
REMARK  109  A    between atoms: _268  and  _270
REMARK  110  A    between atoms: _270  and  _271
REMARK  111  A    between atoms: _270  and  _273
REMARK  112  A    between atoms: _273  and  _274
REMARK  113  A    between atoms: _277  and  _279
REMARK  114  A    between atoms: _290  and  _293
REMARK  115  A    between atoms: _293  and  _294
REMARK  116  A    between atoms: _294  and  _295
REMARK  117  A    between atoms: _300  and  _303
REMARK  118  A    between atoms: _303  and  _304
REMARK  119  A    between atoms: _314  and  _315
REMARK  120  A    between atoms: _323  and  _325
REMARK  121  A    between atoms: _325  and  _326
REMARK  122  A    between atoms: _325  and  _328
REMARK  123  A    between atoms: _328  and  _329
REMARK  124  A    between atoms: _332  and  _334
REMARK  125  A    between atoms: _334  and  _335
REMARK  126  A    between atoms: _334  and  _337
REMARK  127  A    between atoms: _337  and  _338
REMARK  128  A    between atoms: _343  and  _344
REMARK  129  A    between atoms: _346  and  _348
REMARK  130  A    between atoms: _348  and  _349
REMARK  131  A    between atoms: _348  and  _351
REMARK  132  A    between atoms: _351  and  _352
REMARK  133  A    between atoms: _358  and  _360
REMARK  134  A    between atoms: _360  and  _361
REMARK  135  A    between atoms: _360  and  _363
REMARK  136  A    between atoms: _363  and  _364
REMARK  137  A    between atoms: _369  and  _370
REMARK  138  A    between atoms: _372  and  _374
REMARK  139  A    between atoms: _374  and  _375
REMARK  140  A    between atoms: _374  and  _377
REMARK  141  A    between atoms: _377  and  _378
REMARK  142  A    between atoms: _384  and  _386
REMARK  143  A    between atoms: _386  and  _387
REMARK  144  A    between atoms: _386  and  _389
REMARK  145  A    between atoms: _389  and  _390
REMARK  146  A    between atoms: _390  and  _391
REMARK  147  A    between atoms: _391  and  _392
REMARK  148  A    between atoms: _401  and  _403
REMARK  149  A    between atoms: _403  and  _404
REMARK  150  A    between atoms: _403  and  _406
REMARK  151  A    between atoms: _406  and  _407
REMARK  152  A    between atoms: _410  and  _412
REMARK  153  A    between atoms: _412  and  _413
REMARK  154  A    between atoms: _415  and  _417
REMARK  155  A    between atoms: _417  and  _418
REMARK  156  A    between atoms: _421  and  _423
REMARK  157  A    between atoms: _423  and  _424
REMARK  158  A    between atoms: _423  and  _426
REMARK  159  A    between atoms: _426  and  _427
REMARK  160  A    between atoms: _433  and  _434
REMARK  161  A    between atoms: _439  and  _441
REMARK  162  A    between atoms: _441  and  _442
REMARK  163  A    between atoms: _444  and  _446
REMARK  164  A    between atoms: _446  and  _447
REMARK  165  A    between atoms: _446  and  _449
REMARK  166  A    between atoms: _449  and  _450
REMARK  167  A    between atoms: _456  and  _458
REMARK  168  A    between atoms: _458  and  _459
REMARK  169  A    between atoms: _458  and  _461
REMARK  170  A    between atoms: _461  and  _462
REMARK  171  A    between atoms: _467  and  _469
REMARK  172  A    between atoms: _469  and  _470
REMARK  173  A    between atoms: _469  and  _472
REMARK  174  A    between atoms: _472  and  _473
REMARK  175  A    between atoms: _473  and  _474
REMARK  176  A    between atoms: _474  and  _475
REMARK  177  A    between atoms: _475  and  ZN_601
REMARK  178  A    between atoms: _477  and  _479
REMARK  179  A    between atoms: _479  and  _480
REMARK  180  A    between atoms: _479  and  _482
REMARK  181  A    between atoms: _482  and  _483
REMARK  182  A    between atoms: _483  and  _484
REMARK  183  A    between atoms: _484  and  _485
REMARK  184  A    between atoms: _485  and  _486
REMARK  185  A    between atoms: _490  and  _492
REMARK  186  A    between atoms: _492  and  _493
REMARK  187  A    between atoms: _492  and  _495
REMARK  188  A    between atoms: _495  and  _496
REMARK  189  A    between atoms: _501  and  _502
REMARK  190  A    between atoms: _504  and  _506
REMARK  191  A    between atoms: _506  and  _507
REMARK  192  A    between atoms: _506  and  _509
REMARK  193  A    between atoms: _509  and  _510
REMARK  194  A    between atoms: _515  and  _517
REMARK  195  A    between atoms: _517  and  _518
REMARK  196  A    between atoms: _521  and  _523
REMARK  197  A    between atoms: _523  and  _524
REMARK  198  A    between atoms: _523  and  _526
REMARK  199  A    between atoms: _526  and  _527
REMARK  200  A    between atoms: _530  and  _532
REMARK  201  A    between atoms: _532  and  _533
REMARK  202  A    between atoms: _532  and  _535
REMARK  203  A    between atoms: _538  and  _540
REMARK  204  A    between atoms: _540  and  _541
REMARK  205  A    between atoms: _540  and  _543
REMARK  206  A    between atoms: _543  and  _544
REMARK  207  A    between atoms: _544  and  _545
REMARK  208  A    between atoms: _548  and  _550
REMARK  209  A    between atoms: _550  and  _551
REMARK  210  A    between atoms: _550  and  _553
REMARK  211  A    between atoms: _553  and  _554
REMARK  212  A    between atoms: _559  and  _560
REMARK  213  A    between atoms: _562  and  _564
REMARK  214  A    between atoms: _564  and  _565
REMARK  215  A    between atoms: _564  and  _567
REMARK  216  A    between atoms: _567  and  _568
REMARK  217  A    between atoms: _568  and  _569
REMARK  218  A    between atoms: _569  and  _570
REMARK  219  A    between atoms: _579  and  _581
REMARK  220  A    between atoms: _581  and  _582
REMARK  221  A    between atoms: _581  and  _584
REMARK  222  A    between atoms: _584  and  _585
REMARK  223  A    between atoms: _590  and  _591
REMARK  224  A    between atoms: _593  and  _595
REMARK  225  A    between atoms: _595  and  _596
REMARK  226  A    between atoms: _595  and  _598
REMARK  227  A    between atoms: _598  and  _599
REMARK                            x       y       z     vdW  Elec       q    Type
REMARK                         _______ _______ _______ _____ _____    ______ ____
ROOT
ATOM      1  O   HOH     1      -4.494  27.048 -13.761  0.00  0.00    +0.000 OA
ENDROOT
TORSDOF 0
REMARK  Name = ../refined-set-2016/2xhm/2xhm_pocket.pdb
REMARK  227 active torsions:
REMARK  status: ('A' for Active; 'I' for Inactive)
REMARK    1  A    between atoms: _1  and  _3
REMARK    2  A    between atoms: _3  and  _4
REMARK    3  A    between atoms: _3  and  _6
REMARK    4  A    between atoms: _6  and  _7
REMARK    5  A    between atoms: _10  and  _12
REMARK    6  A    between atoms: _12  and  _13
REMARK    7  A    between atoms: _12  and  _15
REMARK    8  A    between atoms: _15  and  _16
REMARK    9  A    between atoms: _16  and  _17
REMARK   10  A    between atoms: _20  and  _22
REMARK   11  A    between atoms: _22  and  _23
REMARK   12  A    between atoms: _22  and  _25
REMARK   13  A    between atoms: _25  and  _26
REMARK   14  A    between atoms: _29  and  _31
REMARK   15  A    between atoms: _31  and  _32
REMARK   16  A    between atoms: _31  and  _34
REMARK   17  A    between atoms: _34  and  _35
REMARK   18  A    between atoms: _35  and  _36
REMARK   19  A    between atoms: _39  and  _41
REMARK   20  A    between atoms: _41  and  _42
REMARK   21  A    between atoms: _45  and  _47
REMARK   22  A    between atoms: _47  and  _48
REMARK   23  A    between atoms: _51  and  _53
REMARK   24  A    between atoms: _53  and  _54
REMARK   25  A    between atoms: _53  and  _56
REMARK   26  A    between atoms: _56  and  _57
REMARK   27  A    between atoms: _67  and  _69
REMARK   28  A    between atoms: _69  and  _70
REMARK   29  A    between atoms: _69  and  _72
REMARK   30  A    between atoms: _72  and  _73
REMARK   31  A    between atoms: _73  and  _74
REMARK   32  A    between atoms: _74  and  _75
REMARK   33  A    between atoms: _75  and  _76
REMARK   34  A    between atoms: _80  and  _82
REMARK   35  A    between atoms: _82  and  _83
REMARK   36  A    between atoms: _82  and  _85
REMARK   37  A    between atoms: _85  and  _86
REMARK   38  A    between atoms: _88  and  _90
REMARK   39  A    between atoms: _90  and  _91
REMARK   40  A    between atoms: _90  and  _93
REMARK   41  A    between atoms: _93  and  _94
REMARK   42  A    between atoms: _94  and  _95
REMARK   43  A    between atoms: _98  and  _100
REMARK   44  A    between atoms: _100  and  _101
REMARK   45  A    between atoms: _100  and  _103
REMARK   46  A    between atoms: _103  and  _104
REMARK   47  A    between atoms: _104  and  _105
REMARK   48  A    between atoms: _110  and  _112
REMARK   49  A    between atoms: _112  and  _113
REMARK   50  A    between atoms: _112  and  _115
REMARK   51  A    between atoms: _118  and  _120
REMARK   52  A    between atoms: _120  and  _121
REMARK   53  A    between atoms: _120  and  _123
REMARK   54  A    between atoms: _123  and  _124
REMARK   55  A    between atoms: _129  and  _131
REMARK   56  A    between atoms: _131  and  _132
REMARK   57  A    between atoms: _135  and  _137
REMARK   58  A    between atoms: _137  and  _138
REMARK   59  A    between atoms: _137  and  _140
REMARK   60  A    between atoms: _140  and  _141
REMARK   61  A    between atoms: _143  and  _145
REMARK   62  A    between atoms: _145  and  _146
REMARK   63  A    between atoms: _149  and  _151
REMARK   64  A    between atoms: _151  and  _152
REMARK   65  A    between atoms: _151  and  _154
REMARK   66  A    between atoms: _154  and  _155
REMARK   67  A    between atoms: _165  and  _167
REMARK   68  A    between atoms: _167  and  _168
REMARK   69  A    between atoms: _167  and  _170
REMARK   70  A    between atoms: _170  and  _171
REMARK   71  A    between atoms: _174  and  _176
REMARK   72  A    between atoms: _176  and  _177
REMARK   73  A    between atoms: _176  and  _179
REMARK   74  A    between atoms: _179  and  _180
REMARK   75  A    between atoms: _186  and  _188
REMARK   76  A    between atoms: _188  and  _189
REMARK   77  A    between atoms: _188  and  _191
REMARK   78  A    between atoms: _191  and  _192
REMARK   79  A    between atoms: _197  and  _198
REMARK   80  A    between atoms: _200  and  _202
REMARK   81  A    between atoms: _202  and  _203
REMARK   82  A    between atoms: _202  and  _205
REMARK   83  A    between atoms: _205  and  _206
REMARK   84  A    between atoms: _209  and  _211
REMARK   85  A    between atoms: _211  and  _212
REMARK   86  A    between atoms: _211  and  _214
REMARK   87  A    between atoms: _217  and  _219
REMARK   88  A    between atoms: _219  and  _220
REMARK   89  A    between atoms: _219  and  _222
REMARK   90  A    between atoms: _222  and  _223
REMARK   91  A    between atoms: _223  and  _224
REMARK   92  A    between atoms: _224  and  _225
REMARK   93  A    between atoms: _234  and  _236
REMARK   94  A    between atoms: _236  and  _237
REMARK   95  A    between atoms: _236  and  _239
REMARK   96  A    between atoms: _239  and  _240
REMARK   97  A    between atoms: _243  and  _245
REMARK   98  A    between atoms: _245  and  _246
REMARK   99  A    between atoms: _245  and  _248
REMARK  100  A    between atoms: _248  and  _249
REMARK  101  A    between atoms: _249  and  _250
REMARK  102  A    between atoms: _250  and  _251
REMARK  103  A    between atoms: _251  and  _252
REMARK  104  A    between atoms: _256  and  _258
REMARK  105  A    between atoms: _258  and  _259
REMARK  106  A    between atoms: _258  and  _261
REMARK  107  A    between atoms: _261  and  _262
REMARK  108  A    between atoms: _262  and  _263
REMARK  109  A    between atoms: _268  and  _270
REMARK  110  A    between atoms: _270  and  _271
REMARK  111  A    between atoms: _270  and  _273
REMARK  112  A    between atoms: _273  and  _274
REMARK  113  A    between atoms: _277  and  _279
REMARK  114  A    between atoms: _290  and  _293
REMARK  115  A    between atoms: _293  and  _294
REMARK  116  A    between atoms: _294  and  _295
REMARK  117  A    between atoms: _300  and  _303
REMARK  118  A    between atoms: _303  and  _304
REMARK  119  A    between atoms: _314  and  _315
REMARK  120  A    between atoms: _323  and  _325
REMARK  121  A    between atoms: _325  and  _326
REMARK  122  A    between atoms: _325  and  _328
REMARK  123  A    between atoms: _328  and  _329
REMARK  124  A    between atoms: _332  and  _334
REMARK  125  A    between atoms: _334  and  _335
REMARK  126  A    between atoms: _334  and  _337
REMARK  127  A    between atoms: _337  and  _338
REMARK  128  A    between atoms: _343  and  _344
REMARK  129  A    between atoms: _346  and  _348
REMARK  130  A    between atoms: _348  and  _349
REMARK  131  A    between atoms: _348  and  _351
REMARK  132  A    between atoms: _351  and  _352
REMARK  133  A    between atoms: _358  and  _360
REMARK  134  A    between atoms: _360  and  _361
REMARK  135  A    between atoms: _360  and  _363
REMARK  136  A    between atoms: _363  and  _364
REMARK  137  A    between atoms: _369  and  _370
REMARK  138  A    between atoms: _372  and  _374
REMARK  139  A    between atoms: _374  and  _375
REMARK  140  A    between atoms: _374  and  _377
REMARK  141  A    between atoms: _377  and  _378
REMARK  142  A    between atoms: _384  and  _386
REMARK  143  A    between atoms: _386  and  _387
REMARK  144  A    between atoms: _386  and  _389
REMARK  145  A    between atoms: _389  and  _390
REMARK  146  A    between atoms: _390  and  _391
REMARK  147  A    between atoms: _391  and  _392
REMARK  148  A    between atoms: _401  and  _403
REMARK  149  A    between atoms: _403  and  _404
REMARK  150  A    between atoms: _403  and  _406
REMARK  151  A    between atoms: _406  and  _407
REMARK  152  A    between atoms: _410  and  _412
REMARK  153  A    between atoms: _412  and  _413
REMARK  154  A    between atoms: _415  and  _417
REMARK  155  A    between atoms: _417  and  _418
REMARK  156  A    between atoms: _421  and  _423
REMARK  157  A    between atoms: _423  and  _424
REMARK  158  A    between atoms: _423  and  _426
REMARK  159  A    between atoms: _426  and  _427
REMARK  160  A    between atoms: _433  and  _434
REMARK  161  A    between atoms: _439  and  _441
REMARK  162  A    between atoms: _441  and  _442
REMARK  163  A    between atoms: _444  and  _446
REMARK  164  A    between atoms: _446  and  _447
REMARK  165  A    between atoms: _446  and  _449
REMARK  166  A    between atoms: _449  and  _450
REMARK  167  A    between atoms: _456  and  _458
REMARK  168  A    between atoms: _458  and  _459
REMARK  169  A    between atoms: _458  and  _461
REMARK  170  A    between atoms: _461  and  _462
REMARK  171  A    between atoms: _467  and  _469
REMARK  172  A    between atoms: _469  and  _470
REMARK  173  A    between atoms: _469  and  _472
REMARK  174  A    between atoms: _472  and  _473
REMARK  175  A    between atoms: _473  and  _474
REMARK  176  A    between atoms: _474  and  _475
REMARK  177  A    between atoms: _475  and  ZN_601
REMARK  178  A    between atoms: _477  and  _479
REMARK  179  A    between atoms: _479  and  _480
REMARK  180  A    between atoms: _479  and  _482
REMARK  181  A    between atoms: _482  and  _483
REMARK  182  A    between atoms: _483  and  _484
REMARK  183  A    between atoms: _484  and  _485
REMARK  184  A    between atoms: _485  and  _486
REMARK  185  A    between atoms: _490  and  _492
REMARK  186  A    between atoms: _492  and  _493
REMARK  187  A    between atoms: _492  and  _495
REMARK  188  A    between atoms: _495  and  _496
REMARK  189  A    between atoms: _501  and  _502
REMARK  190  A    between atoms: _504  and  _506
REMARK  191  A    between atoms: _506  and  _507
REMARK  192  A    between atoms: _506  and  _509
REMARK  193  A    between atoms: _509  and  _510
REMARK  194  A    between atoms: _515  and  _517
REMARK  195  A    between atoms: _517  and  _518
REMARK  196  A    between atoms: _521  and  _523
REMARK  197  A    between atoms: _523  and  _524
REMARK  198  A    between atoms: _523  and  _526
REMARK  199  A    between atoms: _526  and  _527
REMARK  200  A    between atoms: _530  and  _532
REMARK  201  A    between atoms: _532  and  _533
REMARK  202  A    between atoms: _532  and  _535
REMARK  203  A    between atoms: _538  and  _540
REMARK  204  A    between atoms: _540  and  _541
REMARK  205  A    between atoms: _540  and  _543
REMARK  206  A    between atoms: _543  and  _544
REMARK  207  A    between atoms: _544  and  _545
REMARK  208  A    between atoms: _548  and  _550
REMARK  209  A    between atoms: _550  and  _551
REMARK  210  A    between atoms: _550  and  _553
REMARK  211  A    between atoms: _553  and  _554
REMARK  212  A    between atoms: _559  and  _560
REMARK  213  A    between atoms: _562  and  _564
REMARK  214  A    between atoms: _564  and  _565
REMARK  215  A    between atoms: _564  and  _567
REMARK  216  A    between atoms: _567  and  _568
REMARK  217  A    between atoms: _568  and  _569
REMARK  218  A    between atoms: _569  and  _570
REMARK  219  A    between atoms: _579  and  _581
REMARK  220  A    between atoms: _581  and  _582
REMARK  221  A    between atoms: _581  and  _584
REMARK  222  A    between atoms: _584  and  _585
REMARK  223  A    between atoms: _590  and  _591
REMARK  224  A    between atoms: _593  and  _595
REMARK  225  A    between atoms: _595  and  _596
REMARK  226  A    between atoms: _595  and  _598
REMARK  227  A    between atoms: _598  and  _599
REMARK                            x       y       z     vdW  Elec       q    Type
REMARK                         _______ _______ _______ _____ _____    ______ ____
ROOT
ATOM      1  O   HOH     1     -10.026  25.781 -20.609  0.00  0.00    +0.000 OA
ENDROOT
TORSDOF 0
REMARK  Name = ../refined-set-2016/2xhm/2xhm_pocket.pdb
REMARK  227 active torsions:
REMARK  status: ('A' for Active; 'I' for Inactive)
REMARK    1  A    between atoms: _1  and  _3
REMARK    2  A    between atoms: _3  and  _4
REMARK    3  A    between atoms: _3  and  _6
REMARK    4  A    between atoms: _6  and  _7
REMARK    5  A    between atoms: _10  and  _12
REMARK    6  A    between atoms: _12  and  _13
REMARK    7  A    between atoms: _12  and  _15
REMARK    8  A    between atoms: _15  and  _16
REMARK    9  A    between atoms: _16  and  _17
REMARK   10  A    between atoms: _20  and  _22
REMARK   11  A    between atoms: _22  and  _23
REMARK   12  A    between atoms: _22  and  _25
REMARK   13  A    between atoms: _25  and  _26
REMARK   14  A    between atoms: _29  and  _31
REMARK   15  A    between atoms: _31  and  _32
REMARK   16  A    between atoms: _31  and  _34
REMARK   17  A    between atoms: _34  and  _35
REMARK   18  A    between atoms: _35  and  _36
REMARK   19  A    between atoms: _39  and  _41
REMARK   20  A    between atoms: _41  and  _42
REMARK   21  A    between atoms: _45  and  _47
REMARK   22  A    between atoms: _47  and  _48
REMARK   23  A    between atoms: _51  and  _53
REMARK   24  A    between atoms: _53  and  _54
REMARK   25  A    between atoms: _53  and  _56
REMARK   26  A    between atoms: _56  and  _57
REMARK   27  A    between atoms: _67  and  _69
REMARK   28  A    between atoms: _69  and  _70
REMARK   29  A    between atoms: _69  and  _72
REMARK   30  A    between atoms: _72  and  _73
REMARK   31  A    between atoms: _73  and  _74
REMARK   32  A    between atoms: _74  and  _75
REMARK   33  A    between atoms: _75  and  _76
REMARK   34  A    between atoms: _80  and  _82
REMARK   35  A    between atoms: _82  and  _83
REMARK   36  A    between atoms: _82  and  _85
REMARK   37  A    between atoms: _85  and  _86
REMARK   38  A    between atoms: _88  and  _90
REMARK   39  A    between atoms: _90  and  _91
REMARK   40  A    between atoms: _90  and  _93
REMARK   41  A    between atoms: _93  and  _94
REMARK   42  A    between atoms: _94  and  _95
REMARK   43  A    between atoms: _98  and  _100
REMARK   44  A    between atoms: _100  and  _101
REMARK   45  A    between atoms: _100  and  _103
REMARK   46  A    between atoms: _103  and  _104
REMARK   47  A    between atoms: _104  and  _105
REMARK   48  A    between atoms: _110  and  _112
REMARK   49  A    between atoms: _112  and  _113
REMARK   50  A    between atoms: _112  and  _115
REMARK   51  A    between atoms: _118  and  _120
REMARK   52  A    between atoms: _120  and  _121
REMARK   53  A    between atoms: _120  and  _123
REMARK   54  A    between atoms: _123  and  _124
REMARK   55  A    between atoms: _129  and  _131
REMARK   56  A    between atoms: _131  and  _132
REMARK   57  A    between atoms: _135  and  _137
REMARK   58  A    between atoms: _137  and  _138
REMARK   59  A    between atoms: _137  and  _140
REMARK   60  A    between atoms: _140  and  _141
REMARK   61  A    between atoms: _143  and  _145
REMARK   62  A    between atoms: _145  and  _146
REMARK   63  A    between atoms: _149  and  _151
REMARK   64  A    between atoms: _151  and  _152
REMARK   65  A    between atoms: _151  and  _154
REMARK   66  A    between atoms: _154  and  _155
REMARK   67  A    between atoms: _165  and  _167
REMARK   68  A    between atoms: _167  and  _168
REMARK   69  A    between atoms: _167  and  _170
REMARK   70  A    between atoms: _170  and  _171
REMARK   71  A    between atoms: _174  and  _176
REMARK   72  A    between atoms: _176  and  _177
REMARK   73  A    between atoms: _176  and  _179
REMARK   74  A    between atoms: _179  and  _180
REMARK   75  A    between atoms: _186  and  _188
REMARK   76  A    between atoms: _188  and  _189
REMARK   77  A    between atoms: _188  and  _191
REMARK   78  A    between atoms: _191  and  _192
REMARK   79  A    between atoms: _197  and  _198
REMARK   80  A    between atoms: _200  and  _202
REMARK   81  A    between atoms: _202  and  _203
REMARK   82  A    between atoms: _202  and  _205
REMARK   83  A    between atoms: _205  and  _206
REMARK   84  A    between atoms: _209  and  _211
REMARK   85  A    between atoms: _211  and  _212
REMARK   86  A    between atoms: _211  and  _214
REMARK   87  A    between atoms: _217  and  _219
REMARK   88  A    between atoms: _219  and  _220
REMARK   89  A    between atoms: _219  and  _222
REMARK   90  A    between atoms: _222  and  _223
REMARK   91  A    between atoms: _223  and  _224
REMARK   92  A    between atoms: _224  and  _225
REMARK   93  A    between atoms: _234  and  _236
REMARK   94  A    between atoms: _236  and  _237
REMARK   95  A    between atoms: _236  and  _239
REMARK   96  A    between atoms: _239  and  _240
REMARK   97  A    between atoms: _243  and  _245
REMARK   98  A    between atoms: _245  and  _246
REMARK   99  A    between atoms: _245  and  _248
REMARK  100  A    between atoms: _248  and  _249
REMARK  101  A    between atoms: _249  and  _250
REMARK  102  A    between atoms: _250  and  _251
REMARK  103  A    between atoms: _251  and  _252
REMARK  104  A    between atoms: _256  and  _258
REMARK  105  A    between atoms: _258  and  _259
REMARK  106  A    between atoms: _258  and  _261
REMARK  107  A    between atoms: _261  and  _262
REMARK  108  A    between atoms: _262  and  _263
REMARK  109  A    between atoms: _268  and  _270
REMARK  110  A    between atoms: _270  and  _271
REMARK  111  A    between atoms: _270  and  _273
REMARK  112  A    between atoms: _273  and  _274
REMARK  113  A    between atoms: _277  and  _279
REMARK  114  A    between atoms: _290  and  _293
REMARK  115  A    between atoms: _293  and  _294
REMARK  116  A    between atoms: _294  and  _295
REMARK  117  A    between atoms: _300  and  _303
REMARK  118  A    between atoms: _303  and  _304
REMARK  119  A    between atoms: _314  and  _315
REMARK  120  A    between atoms: _323  and  _325
REMARK  121  A    between atoms: _325  and  _326
REMARK  122  A    between atoms: _325  and  _328
REMARK  123  A    between atoms: _328  and  _329
REMARK  124  A    between atoms: _332  and  _334
REMARK  125  A    between atoms: _334  and  _335
REMARK  126  A    between atoms: _334  and  _337
REMARK  127  A    between atoms: _337  and  _338
REMARK  128  A    between atoms: _343  and  _344
REMARK  129  A    between atoms: _346  and  _348
REMARK  130  A    between atoms: _348  and  _349
REMARK  131  A    between atoms: _348  and  _351
REMARK  132  A    between atoms: _351  and  _352
REMARK  133  A    between atoms: _358  and  _360
REMARK  134  A    between atoms: _360  and  _361
REMARK  135  A    between atoms: _360  and  _363
REMARK  136  A    between atoms: _363  and  _364
REMARK  137  A    between atoms: _369  and  _370
REMARK  138  A    between atoms: _372  and  _374
REMARK  139  A    between atoms: _374  and  _375
REMARK  140  A    between atoms: _374  and  _377
REMARK  141  A    between atoms: _377  and  _378
REMARK  142  A    between atoms: _384  and  _386
REMARK  143  A    between atoms: _386  and  _387
REMARK  144  A    between atoms: _386  and  _389
REMARK  145  A    between atoms: _389  and  _390
REMARK  146  A    between atoms: _390  and  _391
REMARK  147  A    between atoms: _391  and  _392
REMARK  148  A    between atoms: _401  and  _403
REMARK  149  A    between atoms: _403  and  _404
REMARK  150  A    between atoms: _403  and  _406
REMARK  151  A    between atoms: _406  and  _407
REMARK  152  A    between atoms: _410  and  _412
REMARK  153  A    between atoms: _412  and  _413
REMARK  154  A    between atoms: _415  and  _417
REMARK  155  A    between atoms: _417  and  _418
REMARK  156  A    between atoms: _421  and  _423
REMARK  157  A    between atoms: _423  and  _424
REMARK  158  A    between atoms: _423  and  _426
REMARK  159  A    between atoms: _426  and  _427
REMARK  160  A    between atoms: _433  and  _434
REMARK  161  A    between atoms: _439  and  _441
REMARK  162  A    between atoms: _441  and  _442
REMARK  163  A    between atoms: _444  and  _446
REMARK  164  A    between atoms: _446  and  _447
REMARK  165  A    between atoms: _446  and  _449
REMARK  166  A    between atoms: _449  and  _450
REMARK  167  A    between atoms: _456  and  _458
REMARK  168  A    between atoms: _458  and  _459
REMARK  169  A    between atoms: _458  and  _461
REMARK  170  A    between atoms: _461  and  _462
REMARK  171  A    between atoms: _467  and  _469
REMARK  172  A    between atoms: _469  and  _470
REMARK  173  A    between atoms: _469  and  _472
REMARK  174  A    between atoms: _472  and  _473
REMARK  175  A    between atoms: _473  and  _474
REMARK  176  A    between atoms: _474  and  _475
REMARK  177  A    between atoms: _475  and  ZN_601
REMARK  178  A    between atoms: _477  and  _479
REMARK  179  A    between atoms: _479  and  _480
REMARK  180  A    between atoms: _479  and  _482
REMARK  181  A    between atoms: _482  and  _483
REMARK  182  A    between atoms: _483  and  _484
REMARK  183  A    between atoms: _484  and  _485
REMARK  184  A    between atoms: _485  and  _486
REMARK  185  A    between atoms: _490  and  _492
REMARK  186  A    between atoms: _492  and  _493
REMARK  187  A    between atoms: _492  and  _495
REMARK  188  A    between atoms: _495  and  _496
REMARK  189  A    between atoms: _501  and  _502
REMARK  190  A    between atoms: _504  and  _506
REMARK  191  A    between atoms: _506  and  _507
REMARK  192  A    between atoms: _506  and  _509
REMARK  193  A    between atoms: _509  and  _510
REMARK  194  A    between atoms: _515  and  _517
REMARK  195  A    between atoms: _517  and  _518
REMARK  196  A    between atoms: _521  and  _523
REMARK  197  A    between atoms: _523  and  _524
REMARK  198  A    between atoms: _523  and  _526
REMARK  199  A    between atoms: _526  and  _527
REMARK  200  A    between atoms: _530  and  _532
REMARK  201  A    between atoms: _532  and  _533
REMARK  202  A    between atoms: _532  and  _535
REMARK  203  A    between atoms: _538  and  _540
REMARK  204  A    between atoms: _540  and  _541
REMARK  205  A    between atoms: _540  and  _543
REMARK  206  A    between atoms: _543  and  _544
REMARK  207  A    between atoms: _544  and  _545
REMARK  208  A    between atoms: _548  and  _550
REMARK  209  A    between atoms: _550  and  _551
REMARK  210  A    between atoms: _550  and  _553
REMARK  211  A    between atoms: _553  and  _554
REMARK  212  A    between atoms: _559  and  _560
REMARK  213  A    between atoms: _562  and  _564
REMARK  214  A    between atoms: _564  and  _565
REMARK  215  A    between atoms: _564  and  _567
REMARK  216  A    between atoms: _567  and  _568
REMARK  217  A    between atoms: _568  and  _569
REMARK  218  A    between atoms: _569  and  _570
REMARK  219  A    between atoms: _579  and  _581
REMARK  220  A    between atoms: _581  and  _582
REMARK  221  A    between atoms: _581  and  _584
REMARK  222  A    between atoms: _584  and  _585
REMARK  223  A    between atoms: _590  and  _591
REMARK  224  A    between atoms: _593  and  _595
REMARK  225  A    between atoms: _595  and  _596
REMARK  226  A    between atoms: _595  and  _598
REMARK  227  A    between atoms: _598  and  _599
REMARK                            x       y       z     vdW  Elec       q    Type
REMARK                         _______ _______ _______ _____ _____    ______ ____
ROOT
ATOM      1  O   HOH     1     -18.977  21.159  -7.717  0.00  0.00    +0.000 OA
ENDROOT
TORSDOF 0
REMARK  Name = ../refined-set-2016/2xhm/2xhm_pocket.pdb
REMARK  227 active torsions:
REMARK  status: ('A' for Active; 'I' for Inactive)
REMARK    1  A    between atoms: _1  and  _3
REMARK    2  A    between atoms: _3  and  _4
REMARK    3  A    between atoms: _3  and  _6
REMARK    4  A    between atoms: _6  and  _7
REMARK    5  A    between atoms: _10  and  _12
REMARK    6  A    between atoms: _12  and  _13
REMARK    7  A    between atoms: _12  and  _15
REMARK    8  A    between atoms: _15  and  _16
REMARK    9  A    between atoms: _16  and  _17
REMARK   10  A    between atoms: _20  and  _22
REMARK   11  A    between atoms: _22  and  _23
REMARK   12  A    between atoms: _22  and  _25
REMARK   13  A    between atoms: _25  and  _26
REMARK   14  A    between atoms: _29  and  _31
REMARK   15  A    between atoms: _31  and  _32
REMARK   16  A    between atoms: _31  and  _34
REMARK   17  A    between atoms: _34  and  _35
REMARK   18  A    between atoms: _35  and  _36
REMARK   19  A    between atoms: _39  and  _41
REMARK   20  A    between atoms: _41  and  _42
REMARK   21  A    between atoms: _45  and  _47
REMARK   22  A    between atoms: _47  and  _48
REMARK   23  A    between atoms: _51  and  _53
REMARK   24  A    between atoms: _53  and  _54
REMARK   25  A    between atoms: _53  and  _56
REMARK   26  A    between atoms: _56  and  _57
REMARK   27  A    between atoms: _67  and  _69
REMARK   28  A    between atoms: _69  and  _70
REMARK   29  A    between atoms: _69  and  _72
REMARK   30  A    between atoms: _72  and  _73
REMARK   31  A    between atoms: _73  and  _74
REMARK   32  A    between atoms: _74  and  _75
REMARK   33  A    between atoms: _75  and  _76
REMARK   34  A    between atoms: _80  and  _82
REMARK   35  A    between atoms: _82  and  _83
REMARK   36  A    between atoms: _82  and  _85
REMARK   37  A    between atoms: _85  and  _86
REMARK   38  A    between atoms: _88  and  _90
REMARK   39  A    between atoms: _90  and  _91
REMARK   40  A    between atoms: _90  and  _93
REMARK   41  A    between atoms: _93  and  _94
REMARK   42  A    between atoms: _94  and  _95
REMARK   43  A    between atoms: _98  and  _100
REMARK   44  A    between atoms: _100  and  _101
REMARK   45  A    between atoms: _100  and  _103
REMARK   46  A    between atoms: _103  and  _104
REMARK   47  A    between atoms: _104  and  _105
REMARK   48  A    between atoms: _110  and  _112
REMARK   49  A    between atoms: _112  and  _113
REMARK   50  A    between atoms: _112  and  _115
REMARK   51  A    between atoms: _118  and  _120
REMARK   52  A    between atoms: _120  and  _121
REMARK   53  A    between atoms: _120  and  _123
REMARK   54  A    between atoms: _123  and  _124
REMARK   55  A    between atoms: _129  and  _131
REMARK   56  A    between atoms: _131  and  _132
REMARK   57  A    between atoms: _135  and  _137
REMARK   58  A    between atoms: _137  and  _138
REMARK   59  A    between atoms: _137  and  _140
REMARK   60  A    between atoms: _140  and  _141
REMARK   61  A    between atoms: _143  and  _145
REMARK   62  A    between atoms: _145  and  _146
REMARK   63  A    between atoms: _149  and  _151
REMARK   64  A    between atoms: _151  and  _152
REMARK   65  A    between atoms: _151  and  _154
REMARK   66  A    between atoms: _154  and  _155
REMARK   67  A    between atoms: _165  and  _167
REMARK   68  A    between atoms: _167  and  _168
REMARK   69  A    between atoms: _167  and  _170
REMARK   70  A    between atoms: _170  and  _171
REMARK   71  A    between atoms: _174  and  _176
REMARK   72  A    between atoms: _176  and  _177
REMARK   73  A    between atoms: _176  and  _179
REMARK   74  A    between atoms: _179  and  _180
REMARK   75  A    between atoms: _186  and  _188
REMARK   76  A    between atoms: _188  and  _189
REMARK   77  A    between atoms: _188  and  _191
REMARK   78  A    between atoms: _191  and  _192
REMARK   79  A    between atoms: _197  and  _198
REMARK   80  A    between atoms: _200  and  _202
REMARK   81  A    between atoms: _202  and  _203
REMARK   82  A    between atoms: _202  and  _205
REMARK   83  A    between atoms: _205  and  _206
REMARK   84  A    between atoms: _209  and  _211
REMARK   85  A    between atoms: _211  and  _212
REMARK   86  A    between atoms: _211  and  _214
REMARK   87  A    between atoms: _217  and  _219
REMARK   88  A    between atoms: _219  and  _220
REMARK   89  A    between atoms: _219  and  _222
REMARK   90  A    between atoms: _222  and  _223
REMARK   91  A    between atoms: _223  and  _224
REMARK   92  A    between atoms: _224  and  _225
REMARK   93  A    between atoms: _234  and  _236
REMARK   94  A    between atoms: _236  and  _237
REMARK   95  A    between atoms: _236  and  _239
REMARK   96  A    between atoms: _239  and  _240
REMARK   97  A    between atoms: _243  and  _245
REMARK   98  A    between atoms: _245  and  _246
REMARK   99  A    between atoms: _245  and  _248
REMARK  100  A    between atoms: _248  and  _249
REMARK  101  A    between atoms: _249  and  _250
REMARK  102  A    between atoms: _250  and  _251
REMARK  103  A    between atoms: _251  and  _252
REMARK  104  A    between atoms: _256  and  _258
REMARK  105  A    between atoms: _258  and  _259
REMARK  106  A    between atoms: _258  and  _261
REMARK  107  A    between atoms: _261  and  _262
REMARK  108  A    between atoms: _262  and  _263
REMARK  109  A    between atoms: _268  and  _270
REMARK  110  A    between atoms: _270  and  _271
REMARK  111  A    between atoms: _270  and  _273
REMARK  112  A    between atoms: _273  and  _274
REMARK  113  A    between atoms: _277  and  _279
REMARK  114  A    between atoms: _290  and  _293
REMARK  115  A    between atoms: _293  and  _294
REMARK  116  A    between atoms: _294  and  _295
REMARK  117  A    between atoms: _300  and  _303
REMARK  118  A    between atoms: _303  and  _304
REMARK  119  A    between atoms: _314  and  _315
REMARK  120  A    between atoms: _323  and  _325
REMARK  121  A    between atoms: _325  and  _326
REMARK  122  A    between atoms: _325  and  _328
REMARK  123  A    between atoms: _328  and  _329
REMARK  124  A    between atoms: _332  and  _334
REMARK  125  A    between atoms: _334  and  _335
REMARK  126  A    between atoms: _334  and  _337
REMARK  127  A    between atoms: _337  and  _338
REMARK  128  A    between atoms: _343  and  _344
REMARK  129  A    between atoms: _346  and  _348
REMARK  130  A    between atoms: _348  and  _349
REMARK  131  A    between atoms: _348  and  _351
REMARK  132  A    between atoms: _351  and  _352
REMARK  133  A    between atoms: _358  and  _360
REMARK  134  A    between atoms: _360  and  _361
REMARK  135  A    between atoms: _360  and  _363
REMARK  136  A    between atoms: _363  and  _364
REMARK  137  A    between atoms: _369  and  _370
REMARK  138  A    between atoms: _372  and  _374
REMARK  139  A    between atoms: _374  and  _375
REMARK  140  A    between atoms: _374  and  _377
REMARK  141  A    between atoms: _377  and  _378
REMARK  142  A    between atoms: _384  and  _386
REMARK  143  A    between atoms: _386  and  _387
REMARK  144  A    between atoms: _386  and  _389
REMARK  145  A    between atoms: _389  and  _390
REMARK  146  A    between atoms: _390  and  _391
REMARK  147  A    between atoms: _391  and  _392
REMARK  148  A    between atoms: _401  and  _403
REMARK  149  A    between atoms: _403  and  _404
REMARK  150  A    between atoms: _403  and  _406
REMARK  151  A    between atoms: _406  and  _407
REMARK  152  A    between atoms: _410  and  _412
REMARK  153  A    between atoms: _412  and  _413
REMARK  154  A    between atoms: _415  and  _417
REMARK  155  A    between atoms: _417  and  _418
REMARK  156  A    between atoms: _421  and  _423
REMARK  157  A    between atoms: _423  and  _424
REMARK  158  A    between atoms: _423  and  _426
REMARK  159  A    between atoms: _426  and  _427
REMARK  160  A    between atoms: _433  and  _434
REMARK  161  A    between atoms: _439  and  _441
REMARK  162  A    between atoms: _441  and  _442
REMARK  163  A    between atoms: _444  and  _446
REMARK  164  A    between atoms: _446  and  _447
REMARK  165  A    between atoms: _446  and  _449
REMARK  166  A    between atoms: _449  and  _450
REMARK  167  A    between atoms: _456  and  _458
REMARK  168  A    between atoms: _458  and  _459
REMARK  169  A    between atoms: _458  and  _461
REMARK  170  A    between atoms: _461  and  _462
REMARK  171  A    between atoms: _467  and  _469
REMARK  172  A    between atoms: _469  and  _470
REMARK  173  A    between atoms: _469  and  _472
REMARK  174  A    between atoms: _472  and  _473
REMARK  175  A    between atoms: _473  and  _474
REMARK  176  A    between atoms: _474  and  _475
REMARK  177  A    between atoms: _475  and  ZN_601
REMARK  178  A    between atoms: _477  and  _479
REMARK  179  A    between atoms: _479  and  _480
REMARK  180  A    between atoms: _479  and  _482
REMARK  181  A    between atoms: _482  and  _483
REMARK  182  A    between atoms: _483  and  _484
REMARK  183  A    between atoms: _484  and  _485
REMARK  184  A    between atoms: _485  and  _486
REMARK  185  A    between atoms: _490  and  _492
REMARK  186  A    between atoms: _492  and  _493
REMARK  187  A    between atoms: _492  and  _495
REMARK  188  A    between atoms: _495  and  _496
REMARK  189  A    between atoms: _501  and  _502
REMARK  190  A    between atoms: _504  and  _506
REMARK  191  A    between atoms: _506  and  _507
REMARK  192  A    between atoms: _506  and  _509
REMARK  193  A    between atoms: _509  and  _510
REMARK  194  A    between atoms: _515  and  _517
REMARK  195  A    between atoms: _517  and  _518
REMARK  196  A    between atoms: _521  and  _523
REMARK  197  A    between atoms: _523  and  _524
REMARK  198  A    between atoms: _523  and  _526
REMARK  199  A    between atoms: _526  and  _527
REMARK  200  A    between atoms: _530  and  _532
REMARK  201  A    between atoms: _532  and  _533
REMARK  202  A    between atoms: _532  and  _535
REMARK  203  A    between atoms: _538  and  _540
REMARK  204  A    between atoms: _540  and  _541
REMARK  205  A    between atoms: _540  and  _543
REMARK  206  A    between atoms: _543  and  _544
REMARK  207  A    between atoms: _544  and  _545
REMARK  208  A    between atoms: _548  and  _550
REMARK  209  A    between atoms: _550  and  _551
REMARK  210  A    between atoms: _550  and  _553
REMARK  211  A    between atoms: _553  and  _554
REMARK  212  A    between atoms: _559  and  _560
REMARK  213  A    between atoms: _562  and  _564
REMARK  214  A    between atoms: _564  and  _565
REMARK  215  A    between atoms: _564  and  _567
REMARK  216  A    between atoms: _567  and  _568
REMARK  217  A    between atoms: _568  and  _569
REMARK  218  A    between atoms: _569  and  _570
REMARK  219  A    between atoms: _579  and  _581
REMARK  220  A    between atoms: _581  and  _582
REMARK  221  A    between atoms: _581  and  _584
REMARK  222  A    between atoms: _584  and  _585
REMARK  223  A    between atoms: _590  and  _591
REMARK  224  A    between atoms: _593  and  _595
REMARK  225  A    between atoms: _595  and  _596
REMARK  226  A    between atoms: _595  and  _598
REMARK  227  A    between atoms: _598  and  _599
REMARK                            x       y       z     vdW  Elec       q    Type
REMARK                         _______ _______ _______ _____ _____    ______ ____
ROOT
ATOM      1  O   HOH     1     -20.715  24.375  -5.607  0.00  0.00    +0.000 OA
ENDROOT
TORSDOF 0
