REMARK  Name = ../refined-set-2016/4ezz/4ezz_pocket.pdb
REMARK  237 active torsions:
REMARK  status: ('A' for Active; 'I' for Inactive)
REMARK    1  A    between atoms: _1  and  _3
REMARK    2  A    between atoms: _3  and  _4
REMARK    3  A    between atoms: _3  and  _6
REMARK    4  A    between atoms: _6  and  _7
REMARK    5  A    between atoms: _10  and  _12
REMARK    6  A    between atoms: _12  and  _13
REMARK    7  A    between atoms: _12  and  _15
REMARK    8  A    between atoms: _15  and  _16
REMARK    9  A    between atoms: _16  and  _17
REMARK   10  A    between atoms: _20  and  _22
REMARK   11  A    between atoms: _22  and  _23
REMARK   12  A    between atoms: _22  and  _25
REMARK   13  A    between atoms: _25  and  _26
REMARK   14  A    between atoms: _29  and  _31
REMARK   15  A    between atoms: _31  and  _32
REMARK   16  A    between atoms: _31  and  _34
REMARK   17  A    between atoms: _34  and  _35
REMARK   18  A    between atoms: _35  and  _36
REMARK   19  A    between atoms: _38  and  _40
REMARK   20  A    between atoms: _40  and  _41
REMARK   21  A    between atoms: _43  and  _45
REMARK   22  A    between atoms: _45  and  _46
REMARK   23  A    between atoms: _48  and  _50
REMARK   24  A    between atoms: _50  and  _51
REMARK   25  A    between atoms: _50  and  _53
REMARK   26  A    between atoms: _56  and  _58
REMARK   27  A    between atoms: _58  and  _59
REMARK   28  A    between atoms: _58  and  _61
REMARK   29  A    between atoms: _61  and  _62
REMARK   30  A    between atoms: _62  and  _63
REMARK   31  A    between atoms: _65  and  _67
REMARK   32  A    between atoms: _67  and  _68
REMARK   33  A    between atoms: _67  and  _70
REMARK   34  A    between atoms: _70  and  _71
REMARK   35  A    between atoms: _74  and  _76
REMARK   36  A    between atoms: _76  and  _77
REMARK   37  A    between atoms: _76  and  _79
REMARK   38  A    between atoms: _79  and  _80
REMARK   39  A    between atoms: _83  and  _85
REMARK   40  A    between atoms: _85  and  _86
REMARK   41  A    between atoms: _85  and  _88
REMARK   42  A    between atoms: _88  and  _89
REMARK   43  A    between atoms: _92  and  _94
REMARK   44  A    between atoms: _94  and  _95
REMARK   45  A    between atoms: _94  and  _97
REMARK   46  A    between atoms: _97  and  _98
REMARK   47  A    between atoms: _98  and  _99
REMARK   48  A    between atoms: _104  and  _106
REMARK   49  A    between atoms: _106  and  _107
REMARK   50  A    between atoms: _106  and  _109
REMARK   51  A    between atoms: _112  and  _114
REMARK   52  A    between atoms: _114  and  _115
REMARK   53  A    between atoms: _114  and  _117
REMARK   54  A    between atoms: _117  and  _118
REMARK   55  A    between atoms: _124  and  _126
REMARK   56  A    between atoms: _126  and  _127
REMARK   57  A    between atoms: _126  and  _129
REMARK   58  A    between atoms: _129  and  _130
REMARK   59  A    between atoms: _132  and  _134
REMARK   60  A    between atoms: _134  and  _135
REMARK   61  A    between atoms: _134  and  _137
REMARK   62  A    between atoms: _137  and  _138
REMARK   63  A    between atoms: _141  and  _143
REMARK   64  A    between atoms: _143  and  _144
REMARK   65  A    between atoms: _147  and  _149
REMARK   66  A    between atoms: _149  and  _150
REMARK   67  A    between atoms: _149  and  _152
REMARK   68  A    between atoms: _152  and  _153
REMARK   69  A    between atoms: _153  and  _154
REMARK   70  A    between atoms: _157  and  _159
REMARK   71  A    between atoms: _159  and  _160
REMARK   72  A    between atoms: _159  and  _162
REMARK   73  A    between atoms: _162  and  _163
REMARK   74  A    between atoms: _166  and  _168
REMARK   75  A    between atoms: _168  and  _169
REMARK   76  A    between atoms: _168  and  _171
REMARK   77  A    between atoms: _171  and  _172
REMARK   78  A    between atoms: _177  and  _179
REMARK   79  A    between atoms: _179  and  _180
REMARK   80  A    between atoms: _179  and  _182
REMARK   81  A    between atoms: _182  and  _183
REMARK   82  A    between atoms: _183  and  _184
REMARK   83  A    between atoms: _189  and  _191
REMARK   84  A    between atoms: _191  and  _192
REMARK   85  A    between atoms: _191  and  _194
REMARK   86  A    between atoms: _194  and  _195
REMARK   87  A    between atoms: _197  and  _199
REMARK   88  A    between atoms: _199  and  _200
REMARK   89  A    between atoms: _203  and  _205
REMARK   90  A    between atoms: _205  and  _206
REMARK   91  A    between atoms: _205  and  _208
REMARK   92  A    between atoms: _211  and  _213
REMARK   93  A    between atoms: _213  and  _214
REMARK   94  A    between atoms: _213  and  _216
REMARK   95  A    between atoms: _216  and  _217
REMARK   96  A    between atoms: _220  and  _222
REMARK   97  A    between atoms: _222  and  _223
REMARK   98  A    between atoms: _222  and  _225
REMARK   99  A    between atoms: _225  and  _226
REMARK  100  A    between atoms: _229  and  _231
REMARK  101  A    between atoms: _231  and  _232
REMARK  102  A    between atoms: _231  and  _234
REMARK  103  A    between atoms: _234  and  _235
REMARK  104  A    between atoms: _240  and  _242
REMARK  105  A    between atoms: _242  and  _243
REMARK  106  A    between atoms: _246  and  _248
REMARK  107  A    between atoms: _248  and  _249
REMARK  108  A    between atoms: _248  and  _251
REMARK  109  A    between atoms: _251  and  _252
REMARK  110  A    between atoms: _252  and  _253
REMARK  111  A    between atoms: _258  and  _260
REMARK  112  A    between atoms: _260  and  _261
REMARK  113  A    between atoms: _260  and  _263
REMARK  114  A    between atoms: _263  and  _264
REMARK  115  A    between atoms: _270  and  _272
REMARK  116  A    between atoms: _272  and  _273
REMARK  117  A    between atoms: _272  and  _275
REMARK  118  A    between atoms: _275  and  _276
REMARK  119  A    between atoms: _281  and  _283
REMARK  120  A    between atoms: _283  and  _284
REMARK  121  A    between atoms: _283  and  _286
REMARK  122  A    between atoms: _286  and  _287
REMARK  123  A    between atoms: _290  and  _292
REMARK  124  A    between atoms: _292  and  _293
REMARK  125  A    between atoms: _292  and  _295
REMARK  126  A    between atoms: _295  and  _296
REMARK  127  A    between atoms: _299  and  _301
REMARK  128  A    between atoms: _301  and  _302
REMARK  129  A    between atoms: _304  and  _306
REMARK  130  A    between atoms: _306  and  _307
REMARK  131  A    between atoms: _306  and  _309
REMARK  132  A    between atoms: _309  and  _310
REMARK  133  A    between atoms: _313  and  _315
REMARK  134  A    between atoms: _315  and  _316
REMARK  135  A    between atoms: _315  and  _318
REMARK  136  A    between atoms: _318  and  _319
REMARK  137  A    between atoms: _319  and  _320
REMARK  138  A    between atoms: _320  and  _321
REMARK  139  A    between atoms: _330  and  _332
REMARK  140  A    between atoms: _332  and  _333
REMARK  141  A    between atoms: _335  and  _337
REMARK  142  A    between atoms: _337  and  _338
REMARK  143  A    between atoms: _337  and  _340
REMARK  144  A    between atoms: _340  and  _341
REMARK  145  A    between atoms: _341  and  _342
REMARK  146  A    between atoms: _345  and  _346
REMARK  147  A    between atoms: _351  and  _353
REMARK  148  A    between atoms: _353  and  _354
REMARK  149  A    between atoms: _353  and  _356
REMARK  150  A    between atoms: _356  and  _357
REMARK  151  A    between atoms: _357  and  _358
REMARK  152  A    between atoms: _363  and  _365
REMARK  153  A    between atoms: _365  and  _366
REMARK  154  A    between atoms: _365  and  _368
REMARK  155  A    between atoms: _368  and  _369
REMARK  156  A    between atoms: _372  and  _374
REMARK  157  A    between atoms: _374  and  _375
REMARK  158  A    between atoms: _374  and  _377
REMARK  159  A    between atoms: _377  and  _378
REMARK  160  A    between atoms: _378  and  _379
REMARK  161  A    between atoms: _382  and  _384
REMARK  162  A    between atoms: _384  and  _385
REMARK  163  A    between atoms: _384  and  _387
REMARK  164  A    between atoms: _390  and  _392
REMARK  165  A    between atoms: _392  and  _393
REMARK  166  A    between atoms: _392  and  _395
REMARK  167  A    between atoms: _395  and  _396
REMARK  168  A    between atoms: _398  and  _400
REMARK  169  A    between atoms: _400  and  _401
REMARK  170  A    between atoms: _404  and  _406
REMARK  171  A    between atoms: _406  and  _407
REMARK  172  A    between atoms: _406  and  _409
REMARK  173  A    between atoms: _410  and  _411
REMARK  174  A    between atoms: _412  and  _413
REMARK  175  A    between atoms: _417  and  _419
REMARK  176  A    between atoms: _419  and  _420
REMARK  177  A    between atoms: _419  and  _422
REMARK  178  A    between atoms: _422  and  _423
REMARK  179  A    between atoms: _428  and  _430
REMARK  180  A    between atoms: _430  and  _431
REMARK  181  A    between atoms: _430  and  _433
REMARK  182  A    between atoms: _433  and  _434
REMARK  183  A    between atoms: _437  and  _439
REMARK  184  A    between atoms: _439  and  _440
REMARK  185  A    between atoms: _439  and  _442
REMARK  186  A    between atoms: _442  and  _443
REMARK  187  A    between atoms: _448  and  _450
REMARK  188  A    between atoms: _450  and  _451
REMARK  189  A    between atoms: _450  and  _453
REMARK  190  A    between atoms: _453  and  _454
REMARK  191  A    between atoms: _454  and  _455
REMARK  192  A    between atoms: _455  and  _456
REMARK  193  A    between atoms: _465  and  _467
REMARK  194  A    between atoms: _467  and  _468
REMARK  195  A    between atoms: _467  and  _470
REMARK  196  A    between atoms: _470  and  _471
REMARK  197  A    between atoms: _471  and  _472
REMARK  198  A    between atoms: _475  and  _477
REMARK  199  A    between atoms: _477  and  _478
REMARK  200  A    between atoms: _477  and  _480
REMARK  201  A    between atoms: _483  and  _485
REMARK  202  A    between atoms: _485  and  _486
REMARK  203  A    between atoms: _485  and  _488
REMARK  204  A    between atoms: _488  and  _489
REMARK  205  A    between atoms: _489  and  _490
REMARK  206  A    between atoms: _495  and  _497
REMARK  207  A    between atoms: _497  and  _498
REMARK  208  A    between atoms: _497  and  _500
REMARK  209  A    between atoms: _500  and  _501
REMARK  210  A    between atoms: _504  and  _506
REMARK  211  A    between atoms: _506  and  _507
REMARK  212  A    between atoms: _506  and  _509
REMARK  213  A    between atoms: _509  and  _510
REMARK  214  A    between atoms: _515  and  _517
REMARK  215  A    between atoms: _517  and  _518
REMARK  216  A    between atoms: _517  and  _520
REMARK  217  A    between atoms: _520  and  _521
REMARK  218  A    between atoms: _521  and  _522
REMARK  219  A    between atoms: _527  and  _529
REMARK  220  A    between atoms: _529  and  _530
REMARK  221  A    between atoms: _532  and  _534
REMARK  222  A    between atoms: _534  and  _535
REMARK  223  A    between atoms: _534  and  _537
REMARK  224  A    between atoms: _537  and  _538
REMARK  225  A    between atoms: _543  and  _545
REMARK  226  A    between atoms: _545  and  _546
REMARK  227  A    between atoms: _545  and  _548
REMARK  228  A    between atoms: _548  and  _549
REMARK  229  A    between atoms: _552  and  _554
REMARK  230  A    between atoms: _554  and  _555
REMARK  231  A    between atoms: _554  and  _557
REMARK  232  A    between atoms: _557  and  _558
REMARK  233  A    between atoms: _560  and  _562
REMARK  234  A    between atoms: _562  and  _563
REMARK  235  A    between atoms: _562  and  _565
REMARK  236  A    between atoms: _565  and  _566
REMARK  237  A    between atoms: _566  and  _567
REMARK                            x       y       z     vdW  Elec       q    Type
REMARK                         _______ _______ _______ _____ _____    ______ ____
ROOT
ATOM      1  C   GLY A   6      50.907  94.622  24.546  0.00  0.00    +0.243 C 
ATOM      2  N   VAL A   7      50.834  94.418  25.864  0.00  0.00    -0.297 N 
ATOM      3  H   VAL A   7      50.993  93.469  26.259  0.00  0.00    +0.150 HD
ATOM      4  O   GLY A   6      50.768  95.750  24.027  0.00  0.00    -0.273 OA
ENDROOT
BRANCH   1   5
ATOM      5  CA  GLY A   6      51.200  93.398  23.687  0.00  0.00    +0.176 C 
BRANCH   5   7
ATOM      6  C   GLY A   5      49.465  91.794  24.002  0.00  0.00    +0.243 C 
ATOM      7  N   GLY A   6      50.707  92.154  24.260  0.00  0.00    -0.295 N 
ATOM      8  H   GLY A   6      51.319  91.564  24.858  0.00  0.00    +0.150 HD
ATOM      9  O   GLY A   5      48.750  92.436  23.271  0.00  0.00    -0.273 OA
BRANCH   6  10
ATOM     10  CA  GLY A   5      49.012  90.481  24.567  0.00  0.00    +0.176 C 
BRANCH  10  13
ATOM     11  C   MET A   4      50.306  89.735  26.461  0.00  0.00    +0.241 C 
ATOM     12  O   MET A   4      49.541  90.289  27.272  0.00  0.00    -0.273 OA
ATOM     13  N   GLY A   5      50.169  89.853  25.154  0.00  0.00    -0.295 N 
ATOM     14  H   GLY A   5      50.915  89.483  24.531  0.00  0.00    +0.150 HD
BRANCH  11  15
ATOM     15  CA  MET A   4      51.531  88.945  26.956  0.00  0.00    +0.149 C 
BRANCH  15  17
ATOM     16  C   THR A   3      52.805  90.981  27.604  0.00  0.00    +0.243 C 
ATOM     17  N   MET A   4      52.511  89.685  27.774  0.00  0.00    -0.297 N 
ATOM     18  H   MET A   4      53.004  89.168  28.530  0.00  0.00    +0.150 HD
ATOM     19  O   THR A   3      52.369  91.651  26.662  0.00  0.00    -0.273 OA
BRANCH  16  20
ATOM     20  CA  THR A   3      53.764  91.635  28.649  0.00  0.00    +0.176 C 
BRANCH  20  22
ATOM     21  C   GLU A   2      55.456  93.173  27.840  0.00  0.00    +0.241 C 
ATOM     22  N   THR A   3      54.197  92.955  28.182  0.00  0.00    -0.295 N 
ATOM     23  H   THR A   3      53.506  93.730  28.119  0.00  0.00    +0.150 HD
ATOM     24  O   GLU A   2      56.311  92.308  27.989  0.00  0.00    -0.273 OA
BRANCH  21  25
ATOM     25  CA  GLU A   2      55.795  94.519  27.199  0.00  0.00    +0.149 C 
BRANCH  25  28
ATOM     26  C   ILE A   1      56.731  95.671  29.056  0.00  0.00    +0.238 C 
ATOM     27  O   ILE A   1      55.609  95.878  29.524  0.00  0.00    -0.274 OA
ATOM     28  N   GLU A   2      56.903  95.086  27.900  0.00  0.00    -0.297 N 
ATOM     29  H   GLU A   2      57.856  95.033  27.486  0.00  0.00    +0.150 HD
BRANCH  26  30
ATOM     30  CA  ILE A   1      58.023  96.081  29.776  0.00  0.00    +0.145 C 
BRANCH  30  31
ATOM     31  CB  ILE A   1      58.640  94.827  30.456  0.00  0.00    +0.025 C 
ATOM     32  CG2 ILE A   1      59.947  95.144  31.127  0.00  0.00    +0.002 C 
BRANCH  31  33
ATOM     33  CG1 ILE A   1      57.671  94.223  31.462  0.00  0.00    +0.002 C 
ATOM     34  CD1 ILE A   1      58.165  92.854  31.956  0.00  0.00    +0.000 C 
ENDBRANCH  31  33
ENDBRANCH  30  31
BRANCH  30  35
ATOM     35  N   ILE A   1      57.782  97.188  30.677  0.00  0.00    -0.238 NA
ATOM     36  H   ILE A   1      56.984  97.130  31.341  0.00  0.00    +0.142 HD
ENDBRANCH  30  35
ENDBRANCH  26  30
ENDBRANCH  25  28
BRANCH  25  37
ATOM     37  CB  GLU A   2      56.207  94.310  25.766  0.00  0.00    +0.041 C 
BRANCH  37  38
ATOM     38  CG  GLU A   2      55.070  93.713  24.950  0.00  0.00    +0.116 C 
BRANCH  38  39
ATOM     39  CD  GLU A   2      55.369  93.765  23.469  0.00  0.00    +0.365 C 
ATOM     40  OE2 GLU A   2      56.494  94.162  23.147  0.00  0.00    -0.246 OA
ATOM     41  OE1 GLU A   2      54.509  93.402  22.630  0.00  0.00    -0.246 OA
ENDBRANCH  38  39
ENDBRANCH  37  38
ENDBRANCH  25  37
ENDBRANCH  21  25
ENDBRANCH  20  22
BRANCH  20  42
ATOM     42  CB  THR A   3      53.114  91.730  30.043  0.00  0.00    +0.137 C 
ATOM     43  CG2 THR A   3      54.114  92.233  31.062  0.00  0.00    +0.034 C 
BRANCH  42  44
ATOM     44  OG1 THR A   3      52.081  92.722  29.976  0.00  0.00    -0.382 OA
ATOM     45  HG1 THR A   3      51.410  92.452  29.300  0.00  0.00    +0.210 HD
ENDBRANCH  42  44
ENDBRANCH  20  42
ENDBRANCH  16  20
ENDBRANCH  15  17
BRANCH  15  46
ATOM     46  CB  MET A   4      51.022  87.759  27.780  0.00  0.00    +0.041 C 
BRANCH  46  47
ATOM     47  CG  MET A   4      51.828  86.492  27.576  0.00  0.00    +0.060 C 
BRANCH  47  48
ATOM     48  SD  MET A   4      52.252  86.130  25.861  0.00  0.00    -0.139 S 
ATOM     49  CE  MET A   4      50.672  85.669  25.155  0.00  0.00    +0.069 C 
ENDBRANCH  47  48
ENDBRANCH  46  47
ENDBRANCH  15  46
ENDBRANCH  11  15
ENDBRANCH  10  13
ENDBRANCH   6  10
ENDBRANCH   5   7
ENDBRANCH   1   5
BRANCH   2  50
ATOM     50  CA  VAL A   7      50.531  95.532  26.736  0.00  0.00    +0.149 C 
BRANCH  50  51
ATOM     51  C   VAL A   7      51.786  95.979  27.471  0.00  0.00    +0.241 C 
ATOM     52  N   MET A   8      51.821  97.277  27.844  0.00  0.00    -0.297 N 
ATOM     53  H   MET A   8      51.025  97.902  27.605  0.00  0.00    +0.150 HD
ATOM     54  O   VAL A   7      52.700  95.150  27.712  0.00  0.00    -0.273 OA
BRANCH  52  55
ATOM     55  CA  MET A   8      52.942  97.804  28.565  0.00  0.00    +0.149 C 
BRANCH  55  56
ATOM     56  C   MET A   8      52.599  97.546  30.016  0.00  0.00    +0.241 C 
ATOM     57  N   THR A   9      53.487  96.905  30.744  0.00  0.00    -0.295 N 
ATOM     58  H   THR A   9      54.306  96.458  30.284  0.00  0.00    +0.150 HD
ATOM     59  O   MET A   8      51.552  97.930  30.460  0.00  0.00    -0.273 OA
BRANCH  57  60
ATOM     60  CA  THR A   9      53.331  96.816  32.191  0.00  0.00    +0.176 C 
BRANCH  60  61
ATOM     61  C   THR A   9      54.342  97.716  32.863  0.00  0.00    +0.243 C 
ATOM     62  N   THR A  10      53.915  98.648  33.686  0.00  0.00    -0.295 N 
ATOM     63  H   THR A  10      52.914  98.688  33.966  0.00  0.00    +0.150 HD
ATOM     64  O   THR A   9      55.526  97.553  32.678  0.00  0.00    -0.273 OA
BRANCH  62  65
ATOM     65  CA  THR A  10      54.866  99.624  34.199  0.00  0.00    +0.176 C 
BRANCH  65  66
ATOM     66  C   THR A  10      55.617  99.090  35.404  0.00  0.00    +0.243 C 
ATOM     67  O   THR A  10      55.021  98.444  36.293  0.00  0.00    -0.273 OA
ATOM     68  N   LEU A  11      56.900  99.403  35.453  0.00  0.00    -0.298 N 
ATOM     69  H   LEU A  11      57.340  99.867  34.633  0.00  0.00    +0.150 HD
BRANCH  68  70
ATOM     70  CA  LEU A  11      57.721  99.111  36.639  0.00  0.00    +0.137 C 
BRANCH  70  71
ATOM     71  C   LEU A  11      58.083 100.366  37.322  0.00  0.00    +0.227 C 
ATOM     72  O   LEU A  11      58.228 100.367  38.545  0.00  0.00    -0.286 OA
ENDBRANCH  70  71
BRANCH  70  73
ATOM     73  CB  LEU A  11      59.051  98.419  36.264  0.00  0.00    +0.028 C 
BRANCH  73  74
ATOM     74  CG  LEU A  11      59.159  96.914  36.152  0.00  0.00    +0.002 C 
ATOM     75  CD2 LEU A  11      58.919  96.237  37.476  0.00  0.00    +0.000 C 
ATOM     76  CD1 LEU A  11      58.172  96.378  35.110  0.00  0.00    +0.000 C 
ENDBRANCH  73  74
ENDBRANCH  70  73
ENDBRANCH  68  70
ENDBRANCH  65  66
BRANCH  65  77
ATOM     77  CB  THR A  10      54.124 100.874  34.674  0.00  0.00    +0.137 C 
ATOM     78  CG2 THR A  10      55.058 101.857  35.362  0.00  0.00    +0.034 C 
BRANCH  77  79
ATOM     79  OG1 THR A  10      53.527 101.491  33.531  0.00  0.00    -0.382 OA
ATOM     80  HG1 THR A  10      53.039 102.305  33.814  0.00  0.00    +0.210 HD
ENDBRANCH  77  79
ENDBRANCH  65  77
ENDBRANCH  62  65
ENDBRANCH  60  61
BRANCH  60  81
ATOM     81  CB  THR A   9      53.534  95.354  32.611  0.00  0.00    +0.137 C 
ATOM     82  CG2 THR A   9      53.507  95.164  34.195  0.00  0.00    +0.034 C 
BRANCH  81  83
ATOM     83  OG1 THR A   9      52.473  94.594  32.037  0.00  0.00    -0.382 OA
ATOM     84  HG1 THR A   9      52.503  94.679  31.051  0.00  0.00    +0.210 HD
ENDBRANCH  81  83
ENDBRANCH  60  81
ENDBRANCH  57  60
ENDBRANCH  55  56
BRANCH  55  85
ATOM     85  CB  MET A   8      53.076  99.283  28.363  0.00  0.00    +0.041 C 
BRANCH  85  86
ATOM     86  CG  MET A   8      54.017  99.946  29.369  0.00  0.00    +0.060 C 
BRANCH  86  87
ATOM     87  SD  MET A   8      54.675 101.525  28.807  0.00  0.00    -0.139 S 
ATOM     88  CE  MET A   8      55.749 102.013  30.175  0.00  0.00    +0.069 C 
ENDBRANCH  86  87
ENDBRANCH  85  86
ENDBRANCH  55  85
ENDBRANCH  52  55
ENDBRANCH  50  51
BRANCH  50  89
ATOM     89  CB  VAL A   7      49.424  95.242  27.789  0.00  0.00    +0.027 C 
ATOM     90  CG2 VAL A   7      49.956  95.373  29.212  0.00  0.00    +0.002 C 
ATOM     91  CG1 VAL A   7      48.774  93.899  27.610  0.00  0.00    +0.002 C 
ENDBRANCH  50  89
ENDBRANCH   2  50
TORSDOF 42
REMARK  Name = ../refined-set-2016/4ezz/4ezz_pocket.pdb
REMARK  237 active torsions:
REMARK  status: ('A' for Active; 'I' for Inactive)
REMARK    1  A    between atoms: _1  and  _3
REMARK    2  A    between atoms: _3  and  _4
REMARK    3  A    between atoms: _3  and  _6
REMARK    4  A    between atoms: _6  and  _7
REMARK    5  A    between atoms: _10  and  _12
REMARK    6  A    between atoms: _12  and  _13
REMARK    7  A    between atoms: _12  and  _15
REMARK    8  A    between atoms: _15  and  _16
REMARK    9  A    between atoms: _16  and  _17
REMARK   10  A    between atoms: _20  and  _22
REMARK   11  A    between atoms: _22  and  _23
REMARK   12  A    between atoms: _22  and  _25
REMARK   13  A    between atoms: _25  and  _26
REMARK   14  A    between atoms: _29  and  _31
REMARK   15  A    between atoms: _31  and  _32
REMARK   16  A    between atoms: _31  and  _34
REMARK   17  A    between atoms: _34  and  _35
REMARK   18  A    between atoms: _35  and  _36
REMARK   19  A    between atoms: _38  and  _40
REMARK   20  A    between atoms: _40  and  _41
REMARK   21  A    between atoms: _43  and  _45
REMARK   22  A    between atoms: _45  and  _46
REMARK   23  A    between atoms: _48  and  _50
REMARK   24  A    between atoms: _50  and  _51
REMARK   25  A    between atoms: _50  and  _53
REMARK   26  A    between atoms: _56  and  _58
REMARK   27  A    between atoms: _58  and  _59
REMARK   28  A    between atoms: _58  and  _61
REMARK   29  A    between atoms: _61  and  _62
REMARK   30  A    between atoms: _62  and  _63
REMARK   31  A    between atoms: _65  and  _67
REMARK   32  A    between atoms: _67  and  _68
REMARK   33  A    between atoms: _67  and  _70
REMARK   34  A    between atoms: _70  and  _71
REMARK   35  A    between atoms: _74  and  _76
REMARK   36  A    between atoms: _76  and  _77
REMARK   37  A    between atoms: _76  and  _79
REMARK   38  A    between atoms: _79  and  _80
REMARK   39  A    between atoms: _83  and  _85
REMARK   40  A    between atoms: _85  and  _86
REMARK   41  A    between atoms: _85  and  _88
REMARK   42  A    between atoms: _88  and  _89
REMARK   43  A    between atoms: _92  and  _94
REMARK   44  A    between atoms: _94  and  _95
REMARK   45  A    between atoms: _94  and  _97
REMARK   46  A    between atoms: _97  and  _98
REMARK   47  A    between atoms: _98  and  _99
REMARK   48  A    between atoms: _104  and  _106
REMARK   49  A    between atoms: _106  and  _107
REMARK   50  A    between atoms: _106  and  _109
REMARK   51  A    between atoms: _112  and  _114
REMARK   52  A    between atoms: _114  and  _115
REMARK   53  A    between atoms: _114  and  _117
REMARK   54  A    between atoms: _117  and  _118
REMARK   55  A    between atoms: _124  and  _126
REMARK   56  A    between atoms: _126  and  _127
REMARK   57  A    between atoms: _126  and  _129
REMARK   58  A    between atoms: _129  and  _130
REMARK   59  A    between atoms: _132  and  _134
REMARK   60  A    between atoms: _134  and  _135
REMARK   61  A    between atoms: _134  and  _137
REMARK   62  A    between atoms: _137  and  _138
REMARK   63  A    between atoms: _141  and  _143
REMARK   64  A    between atoms: _143  and  _144
REMARK   65  A    between atoms: _147  and  _149
REMARK   66  A    between atoms: _149  and  _150
REMARK   67  A    between atoms: _149  and  _152
REMARK   68  A    between atoms: _152  and  _153
REMARK   69  A    between atoms: _153  and  _154
REMARK   70  A    between atoms: _157  and  _159
REMARK   71  A    between atoms: _159  and  _160
REMARK   72  A    between atoms: _159  and  _162
REMARK   73  A    between atoms: _162  and  _163
REMARK   74  A    between atoms: _166  and  _168
REMARK   75  A    between atoms: _168  and  _169
REMARK   76  A    between atoms: _168  and  _171
REMARK   77  A    between atoms: _171  and  _172
REMARK   78  A    between atoms: _177  and  _179
REMARK   79  A    between atoms: _179  and  _180
REMARK   80  A    between atoms: _179  and  _182
REMARK   81  A    between atoms: _182  and  _183
REMARK   82  A    between atoms: _183  and  _184
REMARK   83  A    between atoms: _189  and  _191
REMARK   84  A    between atoms: _191  and  _192
REMARK   85  A    between atoms: _191  and  _194
REMARK   86  A    between atoms: _194  and  _195
REMARK   87  A    between atoms: _197  and  _199
REMARK   88  A    between atoms: _199  and  _200
REMARK   89  A    between atoms: _203  and  _205
REMARK   90  A    between atoms: _205  and  _206
REMARK   91  A    between atoms: _205  and  _208
REMARK   92  A    between atoms: _211  and  _213
REMARK   93  A    between atoms: _213  and  _214
REMARK   94  A    between atoms: _213  and  _216
REMARK   95  A    between atoms: _216  and  _217
REMARK   96  A    between atoms: _220  and  _222
REMARK   97  A    between atoms: _222  and  _223
REMARK   98  A    between atoms: _222  and  _225
REMARK   99  A    between atoms: _225  and  _226
REMARK  100  A    between atoms: _229  and  _231
REMARK  101  A    between atoms: _231  and  _232
REMARK  102  A    between atoms: _231  and  _234
REMARK  103  A    between atoms: _234  and  _235
REMARK  104  A    between atoms: _240  and  _242
REMARK  105  A    between atoms: _242  and  _243
REMARK  106  A    between atoms: _246  and  _248
REMARK  107  A    between atoms: _248  and  _249
REMARK  108  A    between atoms: _248  and  _251
REMARK  109  A    between atoms: _251  and  _252
REMARK  110  A    between atoms: _252  and  _253
REMARK  111  A    between atoms: _258  and  _260
REMARK  112  A    between atoms: _260  and  _261
REMARK  113  A    between atoms: _260  and  _263
REMARK  114  A    between atoms: _263  and  _264
REMARK  115  A    between atoms: _270  and  _272
REMARK  116  A    between atoms: _272  and  _273
REMARK  117  A    between atoms: _272  and  _275
REMARK  118  A    between atoms: _275  and  _276
REMARK  119  A    between atoms: _281  and  _283
REMARK  120  A    between atoms: _283  and  _284
REMARK  121  A    between atoms: _283  and  _286
REMARK  122  A    between atoms: _286  and  _287
REMARK  123  A    between atoms: _290  and  _292
REMARK  124  A    between atoms: _292  and  _293
REMARK  125  A    between atoms: _292  and  _295
REMARK  126  A    between atoms: _295  and  _296
REMARK  127  A    between atoms: _299  and  _301
REMARK  128  A    between atoms: _301  and  _302
REMARK  129  A    between atoms: _304  and  _306
REMARK  130  A    between atoms: _306  and  _307
REMARK  131  A    between atoms: _306  and  _309
REMARK  132  A    between atoms: _309  and  _310
REMARK  133  A    between atoms: _313  and  _315
REMARK  134  A    between atoms: _315  and  _316
REMARK  135  A    between atoms: _315  and  _318
REMARK  136  A    between atoms: _318  and  _319
REMARK  137  A    between atoms: _319  and  _320
REMARK  138  A    between atoms: _320  and  _321
REMARK  139  A    between atoms: _330  and  _332
REMARK  140  A    between atoms: _332  and  _333
REMARK  141  A    between atoms: _335  and  _337
REMARK  142  A    between atoms: _337  and  _338
REMARK  143  A    between atoms: _337  and  _340
REMARK  144  A    between atoms: _340  and  _341
REMARK  145  A    between atoms: _341  and  _342
REMARK  146  A    between atoms: _345  and  _346
REMARK  147  A    between atoms: _351  and  _353
REMARK  148  A    between atoms: _353  and  _354
REMARK  149  A    between atoms: _353  and  _356
REMARK  150  A    between atoms: _356  and  _357
REMARK  151  A    between atoms: _357  and  _358
REMARK  152  A    between atoms: _363  and  _365
REMARK  153  A    between atoms: _365  and  _366
REMARK  154  A    between atoms: _365  and  _368
REMARK  155  A    between atoms: _368  and  _369
REMARK  156  A    between atoms: _372  and  _374
REMARK  157  A    between atoms: _374  and  _375
REMARK  158  A    between atoms: _374  and  _377
REMARK  159  A    between atoms: _377  and  _378
REMARK  160  A    between atoms: _378  and  _379
REMARK  161  A    between atoms: _382  and  _384
REMARK  162  A    between atoms: _384  and  _385
REMARK  163  A    between atoms: _384  and  _387
REMARK  164  A    between atoms: _390  and  _392
REMARK  165  A    between atoms: _392  and  _393
REMARK  166  A    between atoms: _392  and  _395
REMARK  167  A    between atoms: _395  and  _396
REMARK  168  A    between atoms: _398  and  _400
REMARK  169  A    between atoms: _400  and  _401
REMARK  170  A    between atoms: _404  and  _406
REMARK  171  A    between atoms: _406  and  _407
REMARK  172  A    between atoms: _406  and  _409
REMARK  173  A    between atoms: _410  and  _411
REMARK  174  A    between atoms: _412  and  _413
REMARK  175  A    between atoms: _417  and  _419
REMARK  176  A    between atoms: _419  and  _420
REMARK  177  A    between atoms: _419  and  _422
REMARK  178  A    between atoms: _422  and  _423
REMARK  179  A    between atoms: _428  and  _430
REMARK  180  A    between atoms: _430  and  _431
REMARK  181  A    between atoms: _430  and  _433
REMARK  182  A    between atoms: _433  and  _434
REMARK  183  A    between atoms: _437  and  _439
REMARK  184  A    between atoms: _439  and  _440
REMARK  185  A    between atoms: _439  and  _442
REMARK  186  A    between atoms: _442  and  _443
REMARK  187  A    between atoms: _448  and  _450
REMARK  188  A    between atoms: _450  and  _451
REMARK  189  A    between atoms: _450  and  _453
REMARK  190  A    between atoms: _453  and  _454
REMARK  191  A    between atoms: _454  and  _455
REMARK  192  A    between atoms: _455  and  _456
REMARK  193  A    between atoms: _465  and  _467
REMARK  194  A    between atoms: _467  and  _468
REMARK  195  A    between atoms: _467  and  _470
REMARK  196  A    between atoms: _470  and  _471
REMARK  197  A    between atoms: _471  and  _472
REMARK  198  A    between atoms: _475  and  _477
REMARK  199  A    between atoms: _477  and  _478
REMARK  200  A    between atoms: _477  and  _480
REMARK  201  A    between atoms: _483  and  _485
REMARK  202  A    between atoms: _485  and  _486
REMARK  203  A    between atoms: _485  and  _488
REMARK  204  A    between atoms: _488  and  _489
REMARK  205  A    between atoms: _489  and  _490
REMARK  206  A    between atoms: _495  and  _497
REMARK  207  A    between atoms: _497  and  _498
REMARK  208  A    between atoms: _497  and  _500
REMARK  209  A    between atoms: _500  and  _501
REMARK  210  A    between atoms: _504  and  _506
REMARK  211  A    between atoms: _506  and  _507
REMARK  212  A    between atoms: _506  and  _509
REMARK  213  A    between atoms: _509  and  _510
REMARK  214  A    between atoms: _515  and  _517
REMARK  215  A    between atoms: _517  and  _518
REMARK  216  A    between atoms: _517  and  _520
REMARK  217  A    between atoms: _520  and  _521
REMARK  218  A    between atoms: _521  and  _522
REMARK  219  A    between atoms: _527  and  _529
REMARK  220  A    between atoms: _529  and  _530
REMARK  221  A    between atoms: _532  and  _534
REMARK  222  A    between atoms: _534  and  _535
REMARK  223  A    between atoms: _534  and  _537
REMARK  224  A    between atoms: _537  and  _538
REMARK  225  A    between atoms: _543  and  _545
REMARK  226  A    between atoms: _545  and  _546
REMARK  227  A    between atoms: _545  and  _548
REMARK  228  A    between atoms: _548  and  _549
REMARK  229  A    between atoms: _552  and  _554
REMARK  230  A    between atoms: _554  and  _555
REMARK  231  A    between atoms: _554  and  _557
REMARK  232  A    between atoms: _557  and  _558
REMARK  233  A    between atoms: _560  and  _562
REMARK  234  A    between atoms: _562  and  _563
REMARK  235  A    between atoms: _562  and  _565
REMARK  236  A    between atoms: _565  and  _566
REMARK  237  A    between atoms: _566  and  _567
REMARK                            x       y       z     vdW  Elec       q    Type
REMARK                         _______ _______ _______ _____ _____    ______ ____
ROOT
ATOM      1  C   ASP A   8      55.748  74.620  28.312  0.00  0.00    +0.241 C 
ATOM      2  N   ASN A   9      56.825  74.418  29.074  0.00  0.00    -0.297 N 
ATOM      3  H   ASN A   9      56.753  74.492  30.109  0.00  0.00    +0.150 HD
ATOM      4  O   ASP A   8      55.823  74.677  27.078  0.00  0.00    -0.273 OA
ENDROOT
BRANCH   1   5
ATOM      5  CA  ASP A   8      54.388  74.812  29.016  0.00  0.00    +0.160 C 
BRANCH   5   8
ATOM      6  C   GLU A   7      54.315  77.150  28.477  0.00  0.00    +0.241 C 
ATOM      7  O   GLU A   7      55.392  77.378  29.005  0.00  0.00    -0.273 OA
ATOM      8  N   ASP A   8      53.719  75.973  28.550  0.00  0.00    -0.297 N 
ATOM      9  H   ASP A   8      52.725  75.895  28.256  0.00  0.00    +0.150 HD
BRANCH   6  10
ATOM     10  CA  GLU A   7      53.569  78.218  27.693  0.00  0.00    +0.149 C 
BRANCH  10  12
ATOM     11  C   ALA A   6      52.671  80.388  28.459  0.00  0.00    +0.241 C 
ATOM     12  N   GLU A   7      53.697  79.560  28.259  0.00  0.00    -0.297 N 
ATOM     13  H   GLU A   7      54.648  79.889  28.522  0.00  0.00    +0.150 HD
ATOM     14  O   ALA A   6      51.508  80.103  28.188  0.00  0.00    -0.273 OA
BRANCH  11  15
ATOM     15  CA  ALA A   6      53.008  81.781  28.976  0.00  0.00    +0.149 C 
ATOM     16  CB  ALA A   6      52.680  82.782  27.872  0.00  0.00    +0.031 C 
BRANCH  15  19
ATOM     17  C   THR A   5      54.723  81.954  30.719  0.00  0.00    +0.243 C 
ATOM     18  O   THR A   5      53.854  81.799  31.618  0.00  0.00    -0.273 OA
ATOM     19  N   ALA A   6      54.415  81.945  29.416  0.00  0.00    -0.297 N 
ATOM     20  H   ALA A   6      55.168  82.054  28.707  0.00  0.00    +0.150 HD
BRANCH  17  21
ATOM     21  CA  THR A   5      56.189  82.093  31.108  0.00  0.00    +0.176 C 
BRANCH  21  23
ATOM     22  C   SER A   4      56.332  83.839  32.853  0.00  0.00    +0.243 C 
ATOM     23  N   THR A   5      56.267  82.551  32.504  0.00  0.00    -0.295 N 
ATOM     24  H   THR A   5      56.272  81.835  33.258  0.00  0.00    +0.150 HD
ATOM     25  O   SER A   4      56.201  84.795  32.077  0.00  0.00    -0.273 OA
BRANCH  22  26
ATOM     26  CA  SER A   4      56.472  84.109  34.316  0.00  0.00    +0.178 C 
BRANCH  26  29
ATOM     27  C   PHE A   3      57.086  86.094  35.558  0.00  0.00    +0.241 C 
ATOM     28  O   PHE A   3      57.998  85.461  36.145  0.00  0.00    -0.273 OA
ATOM     29  N   SER A   4      56.305  85.521  34.629  0.00  0.00    -0.295 N 
ATOM     30  H   SER A   4      55.583  86.083  34.135  0.00  0.00    +0.150 HD
BRANCH  27  31
ATOM     31  CA  PHE A   3      56.794  87.564  35.924  0.00  0.00    +0.153 C 
BRANCH  31  34
ATOM     32  C   VAL A   2      57.050  88.553  38.208  0.00  0.00    +0.241 C 
ATOM     33  O   VAL A   2      55.864  88.709  38.384  0.00  0.00    -0.273 OA
ATOM     34  N   PHE A   3      57.575  87.973  37.125  0.00  0.00    -0.297 N 
ATOM     35  H   PHE A   3      58.600  87.795  37.120  0.00  0.00    +0.150 HD
BRANCH  32  36
ATOM     36  CA  VAL A   2      58.057  88.994  39.263  0.00  0.00    +0.148 C 
BRANCH  36  38
ATOM     37  C   GLN A   1      58.611  91.292  39.247  0.00  0.00    +0.238 C 
ATOM     38  N   VAL A   2      57.805  90.348  39.697  0.00  0.00    -0.297 N 
ATOM     39  H   VAL A   2      57.018  90.571  40.340  0.00  0.00    +0.150 HD
ATOM     40  O   GLN A   1      59.566  91.048  38.501  0.00  0.00    -0.274 OA
BRANCH  37  41
ATOM     41  CA  GLN A   1      58.381  92.651  39.790  0.00  0.00    +0.145 C 
BRANCH  41  42
ATOM     42  N   GLN A   1      59.623  93.365  39.772  0.00  0.00    -0.238 NA
ATOM     43  H   GLN A   1      60.336  93.185  39.037  0.00  0.00    +0.142 HD
ENDBRANCH  41  42
BRANCH  41  44
ATOM     44  CB  GLN A   1      57.329  93.430  39.035  0.00  0.00    +0.036 C 
BRANCH  44  45
ATOM     45  CG  GLN A   1      56.032  92.663  38.878  0.00  0.00    +0.087 C 
BRANCH  45  46
ATOM     46  CD  GLN A   1      54.820  93.481  38.409  0.00  0.00    +0.219 C 
ATOM     47  NE2 GLN A   1      54.961  94.783  38.229  0.00  0.00    -0.329 N 
ATOM     48 HE21 GLN A   1      55.873  95.240  38.430  0.00  0.00    +0.145 HD
ATOM     49 HE22 GLN A   1      54.159  95.350  37.887  0.00  0.00    +0.145 HD
ATOM     50  OE1 GLN A   1      53.773  92.892  38.190  0.00  0.00    -0.275 OA
ENDBRANCH  45  46
ENDBRANCH  44  45
ENDBRANCH  41  44
ENDBRANCH  37  41
ENDBRANCH  36  38
BRANCH  36  51
ATOM     51  CB  VAL A   2      58.183  87.950  40.387  0.00  0.00    +0.027 C 
ATOM     52  CG2 VAL A   2      59.183  88.364  41.464  0.00  0.00    +0.002 C 
ATOM     53  CG1 VAL A   2      58.625  86.617  39.776  0.00  0.00    +0.002 C 
ENDBRANCH  36  51
ENDBRANCH  32  36
ENDBRANCH  31  34
BRANCH  31  54
ATOM     54  CB  PHE A   3      57.197  88.393  34.768  0.00  0.00    +0.055 C 
BRANCH  54  55
ATOM     55  CG  PHE A   3      56.913  89.834  34.933  0.00  0.00    -0.020 A 
ATOM     56  CD2 PHE A   3      57.913  90.699  35.347  0.00  0.00    -0.004 A 
ATOM     57  CE2 PHE A   3      57.664  92.051  35.435  0.00  0.00    -0.000 A 
ATOM     58  CZ  PHE A   3      56.441  92.554  35.118  0.00  0.00    -0.000 A 
ATOM     59  CE1 PHE A   3      55.423  91.684  34.735  0.00  0.00    -0.000 A 
ATOM     60  CD1 PHE A   3      55.677  90.337  34.619  0.00  0.00    -0.004 A 
ENDBRANCH  54  55
ENDBRANCH  31  54
ENDBRANCH  27  31
ENDBRANCH  26  29
BRANCH  26  61
ATOM     61  CB  SER A   4      55.396  83.266  34.997  0.00  0.00    +0.166 C 
BRANCH  61  62
ATOM     62  OG  SER A   4      55.854  81.906  35.024  0.00  0.00    -0.380 OA
ATOM     63  H   SER A   4      56.703  81.855  35.531  0.00  0.00    +0.211 HD
ENDBRANCH  61  62
ENDBRANCH  26  61
ENDBRANCH  22  26
ENDBRANCH  21  23
BRANCH  21  64
ATOM     64  CB  THR A   5      56.861  80.690  30.966  0.00  0.00    +0.137 C 
ATOM     65  CG2 THR A   5      58.355  80.737  31.188  0.00  0.00    +0.034 C 
BRANCH  64  66
ATOM     66  OG1 THR A   5      56.336  79.782  31.959  0.00  0.00    -0.382 OA
ATOM     67  HG1 THR A   5      56.770  78.898  31.858  0.00  0.00    +0.210 HD
ENDBRANCH  64  66
ENDBRANCH  21  64
ENDBRANCH  17  21
ENDBRANCH  15  19
ENDBRANCH  11  15
ENDBRANCH  10  12
BRANCH  10  68
ATOM     68  CB  GLU A   7      54.106  78.210  26.260  0.00  0.00    +0.041 C 
BRANCH  68  69
ATOM     69  CG  GLU A   7      53.422  79.240  25.398  0.00  0.00    +0.116 C 
BRANCH  69  70
ATOM     70  CD  GLU A   7      53.340  78.817  23.937  0.00  0.00    +0.365 C 
ATOM     71  OE2 GLU A   7      54.247  78.054  23.525  0.00  0.00    -0.246 OA
ATOM     72  OE1 GLU A   7      52.390  79.259  23.213  0.00  0.00    -0.246 OA
ENDBRANCH  69  70
ENDBRANCH  68  69
ENDBRANCH  10  68
ENDBRANCH   6  10
ENDBRANCH   5   8
BRANCH   5  73
ATOM     73  CB  ASP A   8      53.469  73.618  28.747  0.00  0.00    +0.143 C 
BRANCH  73  74
ATOM     74  CG  ASP A   8      52.446  73.402  29.884  0.00  0.00    +0.367 C 
ATOM     75  OD2 ASP A   8      52.295  74.268  30.773  0.00  0.00    -0.246 OA
ATOM     76  OD1 ASP A   8      51.795  72.341  29.897  0.00  0.00    -0.246 OA
ENDBRANCH  73  74
ENDBRANCH   5  73
ENDBRANCH   1   5
BRANCH   2  77
ATOM     77  CA  ASN A   9      58.123  74.088  28.441  0.00  0.00    +0.158 C 
BRANCH  77  78
ATOM     78  C   ASN A   9      58.787  75.272  27.740  0.00  0.00    +0.241 C 
ATOM     79  N   GLN A  10      58.223  76.473  27.904  0.00  0.00    -0.297 N 
ATOM     80  H   GLN A  10      57.330  76.552  28.431  0.00  0.00    +0.150 HD
ATOM     81  O   ASN A   9      59.782  75.094  27.039  0.00  0.00    -0.273 OA
BRANCH  79  82
ATOM     82  CA  GLN A  10      58.847  77.686  27.350  0.00  0.00    +0.149 C 
BRANCH  82  83
ATOM     83  C   GLN A  10      60.281  77.823  27.868  0.00  0.00    +0.241 C 
ATOM     84  O   GLN A  10      60.490  77.698  29.071  0.00  0.00    -0.273 OA
ATOM     85  N   SER A  11      61.272  78.041  26.994  0.00  0.00    -0.295 N 
ATOM     86  H   SER A  11      61.078  78.184  25.982  0.00  0.00    +0.150 HD
BRANCH  85  87
ATOM     87  CA  SER A  11      62.650  78.070  27.523  0.00  0.00    +0.178 C 
BRANCH  87  88
ATOM     88  C   SER A  11      63.312  79.433  27.559  0.00  0.00    +0.243 C 
ATOM     89  O   SER A  11      64.412  79.570  28.086  0.00  0.00    -0.273 OA
ATOM     90  N   ALA A  12      62.617  80.443  27.051  0.00  0.00    -0.297 N 
ATOM     91  H   ALA A  12      61.705  80.250  26.591  0.00  0.00    +0.150 HD
BRANCH  90  92
ATOM     92  CA  ALA A  12      63.100  81.815  27.122  0.00  0.00    +0.149 C 
ATOM     93  CB  ALA A  12      63.941  82.113  25.903  0.00  0.00    +0.031 C 
BRANCH  92  94
ATOM     94  C   ALA A  12      61.944  82.808  27.183  0.00  0.00    +0.241 C 
ATOM     95  N   VAL A  13      62.242  83.986  27.705  0.00  0.00    -0.297 N 
ATOM     96  H   VAL A  13      63.173  84.111  28.151  0.00  0.00    +0.150 HD
ATOM     97  O   ALA A  12      60.797  82.524  26.760  0.00  0.00    -0.273 OA
BRANCH  95  98
ATOM     98  CA  VAL A  13      61.308  85.135  27.683  0.00  0.00    +0.149 C 
BRANCH  98  99
ATOM     99  C   VAL A  13      62.059  86.298  27.094  0.00  0.00    +0.241 C 
ATOM    100  O   VAL A  13      63.300  86.410  27.225  0.00  0.00    -0.273 OA
ATOM    101  N   THR A  14      61.296  87.132  26.426  0.00  0.00    -0.295 N 
ATOM    102  H   THR A  14      60.289  86.887  26.340  0.00  0.00    +0.150 HD
BRANCH 101 103
ATOM    103  CA  THR A  14      61.732  88.366  25.796  0.00  0.00    +0.176 C 
BRANCH 103 104
ATOM    104  C   THR A  14      61.436  89.522  26.730  0.00  0.00    +0.243 C 
ATOM    105  O   THR A  14      60.310  89.617  27.239  0.00  0.00    -0.273 OA
ATOM    106  N   ILE A  15      62.437  90.388  26.961  0.00  0.00    -0.297 N 
ATOM    107  H   ILE A  15      63.373  90.220  26.539  0.00  0.00    +0.150 HD
BRANCH 106 108
ATOM    108  CA  ILE A  15      62.223  91.553  27.793  0.00  0.00    +0.149 C 
BRANCH 108 109
ATOM    109  C   ILE A  15      62.312  92.718  26.873  0.00  0.00    +0.241 C 
ATOM    110  N   HIS A  16      61.151  93.266  26.545  0.00  0.00    -0.298 N 
ATOM    111  H   HIS A  16      60.273  92.836  26.899  0.00  0.00    +0.150 HD
ATOM    112  O   ILE A  15      63.402  93.105  26.439  0.00  0.00    -0.273 OA
BRANCH 110 113
ATOM    113  CA  HIS A  16      61.070  94.427  25.722  0.00  0.00    +0.143 C 
BRANCH 113 114
ATOM    114  C   HIS A  16      60.728  95.601  26.602  0.00  0.00    +0.227 C 
ATOM    115  O   HIS A  16      59.613  95.705  27.145  0.00  0.00    -0.286 OA
ENDBRANCH 113 114
BRANCH 113 116
ATOM    116  CB  HIS A  16      60.054  94.214  24.616  0.00  0.00    +0.075 C 
BRANCH 116 117
ATOM    117  CG  HIS A  16      59.983  95.349  23.642  0.00  0.00    +0.082 A 
ATOM    118  CD2 HIS A  16      60.872  96.378  23.382  0.00  0.00    +0.115 A 
ATOM    119  NE2 HIS A  16      60.347  97.117  22.409  0.00  0.00    -0.221 NA
ATOM    120  CE1 HIS A  16      59.161  96.617  22.080  0.00  0.00    +0.199 A 
ATOM    121  ND1 HIS A  16      58.948  95.538  22.826  0.00  0.00    -0.227 NA
ENDBRANCH 116 117
ENDBRANCH 113 116
ENDBRANCH 110 113
ENDBRANCH 108 109
BRANCH 108 122
ATOM    122  CB  ILE A  15      63.297  91.708  28.928  0.00  0.00    +0.027 C 
ATOM    123  CG2 ILE A  15      62.949  92.854  29.829  0.00  0.00    +0.002 C 
BRANCH 122 124
ATOM    124  CG1 ILE A  15      63.525  90.398  29.684  0.00  0.00    +0.002 C 
ATOM    125  CD1 ILE A  15      62.323  89.923  30.437  0.00  0.00    +0.000 C 
ENDBRANCH 122 124
ENDBRANCH 108 122
ENDBRANCH 106 108
ENDBRANCH 103 104
BRANCH 103 126
ATOM    126  CB  THR A  14      60.925  88.569  24.519  0.00  0.00    +0.137 C 
ATOM    127  CG2 THR A  14      61.354  89.812  23.812  0.00  0.00    +0.034 C 
BRANCH 126 128
ATOM    128  OG1 THR A  14      61.158  87.435  23.681  0.00  0.00    -0.382 OA
ATOM    129  HG1 THR A  14      62.124  87.372  23.475  0.00  0.00    +0.210 HD
ENDBRANCH 126 128
ENDBRANCH 103 126
ENDBRANCH 101 103
ENDBRANCH  98  99
BRANCH  98 130
ATOM    130  CB  VAL A  13      60.882  85.546  29.107  0.00  0.00    +0.027 C 
ATOM    131  CG2 VAL A  13      62.104  85.874  29.924  0.00  0.00    +0.002 C 
ATOM    132  CG1 VAL A  13      60.149  84.389  29.759  0.00  0.00    +0.002 C 
ENDBRANCH  98 130
ENDBRANCH  95  98
ENDBRANCH  92  94
ENDBRANCH  90  92
ENDBRANCH  87  88
BRANCH  87 133
ATOM    133  CB  SER A  11      63.559  76.998  26.906  0.00  0.00    +0.166 C 
BRANCH 133 134
ATOM    134  OG  SER A  11      63.741  77.213  25.532  0.00  0.00    -0.380 OA
ATOM    135  H   SER A  11      64.330  76.507  25.164  0.00  0.00    +0.211 HD
ENDBRANCH 133 134
ENDBRANCH  87 133
ENDBRANCH  85  87
ENDBRANCH  82  83
BRANCH  82 136
ATOM    136  CB  GLN A  10      58.047  78.913  27.734  0.00  0.00    +0.039 C 
BRANCH 136 137
ATOM    137  CG  GLN A  10      58.490  80.216  27.087  0.00  0.00    +0.087 C 
BRANCH 137 138
ATOM    138  CD  GLN A  10      57.520  81.346  27.407  0.00  0.00    +0.219 C 
ATOM    139  OE1 GLN A  10      56.323  81.087  27.589  0.00  0.00    -0.275 OA
ATOM    140  NE2 GLN A  10      58.025  82.616  27.477  0.00  0.00    -0.329 N 
ATOM    141 HE21 GLN A  10      57.395  83.415  27.691  0.00  0.00    +0.145 HD
ATOM    142 HE22 GLN A  10      59.039  82.782  27.316  0.00  0.00    +0.145 HD
ENDBRANCH 137 138
ENDBRANCH 136 137
ENDBRANCH  82 136
ENDBRANCH  79  82
ENDBRANCH  77  78
BRANCH  77 143
ATOM    143  CB  ASN A   9      57.936  72.953  27.425  0.00  0.00    +0.114 C 
BRANCH 143 144
ATOM    144  CG  ASN A   9      59.176  72.117  27.232  0.00  0.00    +0.222 C 
ATOM    145  OD1 ASN A   9      60.134  72.212  27.992  0.00  0.00    -0.275 OA
ATOM    146  ND2 ASN A   9      59.165  71.284  26.192  0.00  0.00    -0.329 N 
ATOM    147 HD21 ASN A   9      59.991  70.682  25.999  0.00  0.00    +0.145 HD
ATOM    148 HD22 ASN A   9      58.331  71.236  25.573  0.00  0.00    +0.145 HD
ENDBRANCH 143 144
ENDBRANCH  77 143
ENDBRANCH   2  77
TORSDOF 61
REMARK  Name = ../refined-set-2016/4ezz/4ezz_pocket.pdb
REMARK  237 active torsions:
REMARK  status: ('A' for Active; 'I' for Inactive)
REMARK    1  A    between atoms: _1  and  _3
REMARK    2  A    between atoms: _3  and  _4
REMARK    3  A    between atoms: _3  and  _6
REMARK    4  A    between atoms: _6  and  _7
REMARK    5  A    between atoms: _10  and  _12
REMARK    6  A    between atoms: _12  and  _13
REMARK    7  A    between atoms: _12  and  _15
REMARK    8  A    between atoms: _15  and  _16
REMARK    9  A    between atoms: _16  and  _17
REMARK   10  A    between atoms: _20  and  _22
REMARK   11  A    between atoms: _22  and  _23
REMARK   12  A    between atoms: _22  and  _25
REMARK   13  A    between atoms: _25  and  _26
REMARK   14  A    between atoms: _29  and  _31
REMARK   15  A    between atoms: _31  and  _32
REMARK   16  A    between atoms: _31  and  _34
REMARK   17  A    between atoms: _34  and  _35
REMARK   18  A    between atoms: _35  and  _36
REMARK   19  A    between atoms: _38  and  _40
REMARK   20  A    between atoms: _40  and  _41
REMARK   21  A    between atoms: _43  and  _45
REMARK   22  A    between atoms: _45  and  _46
REMARK   23  A    between atoms: _48  and  _50
REMARK   24  A    between atoms: _50  and  _51
REMARK   25  A    between atoms: _50  and  _53
REMARK   26  A    between atoms: _56  and  _58
REMARK   27  A    between atoms: _58  and  _59
REMARK   28  A    between atoms: _58  and  _61
REMARK   29  A    between atoms: _61  and  _62
REMARK   30  A    between atoms: _62  and  _63
REMARK   31  A    between atoms: _65  and  _67
REMARK   32  A    between atoms: _67  and  _68
REMARK   33  A    between atoms: _67  and  _70
REMARK   34  A    between atoms: _70  and  _71
REMARK   35  A    between atoms: _74  and  _76
REMARK   36  A    between atoms: _76  and  _77
REMARK   37  A    between atoms: _76  and  _79
REMARK   38  A    between atoms: _79  and  _80
REMARK   39  A    between atoms: _83  and  _85
REMARK   40  A    between atoms: _85  and  _86
REMARK   41  A    between atoms: _85  and  _88
REMARK   42  A    between atoms: _88  and  _89
REMARK   43  A    between atoms: _92  and  _94
REMARK   44  A    between atoms: _94  and  _95
REMARK   45  A    between atoms: _94  and  _97
REMARK   46  A    between atoms: _97  and  _98
REMARK   47  A    between atoms: _98  and  _99
REMARK   48  A    between atoms: _104  and  _106
REMARK   49  A    between atoms: _106  and  _107
REMARK   50  A    between atoms: _106  and  _109
REMARK   51  A    between atoms: _112  and  _114
REMARK   52  A    between atoms: _114  and  _115
REMARK   53  A    between atoms: _114  and  _117
REMARK   54  A    between atoms: _117  and  _118
REMARK   55  A    between atoms: _124  and  _126
REMARK   56  A    between atoms: _126  and  _127
REMARK   57  A    between atoms: _126  and  _129
REMARK   58  A    between atoms: _129  and  _130
REMARK   59  A    between atoms: _132  and  _134
REMARK   60  A    between atoms: _134  and  _135
REMARK   61  A    between atoms: _134  and  _137
REMARK   62  A    between atoms: _137  and  _138
REMARK   63  A    between atoms: _141  and  _143
REMARK   64  A    between atoms: _143  and  _144
REMARK   65  A    between atoms: _147  and  _149
REMARK   66  A    between atoms: _149  and  _150
REMARK   67  A    between atoms: _149  and  _152
REMARK   68  A    between atoms: _152  and  _153
REMARK   69  A    between atoms: _153  and  _154
REMARK   70  A    between atoms: _157  and  _159
REMARK   71  A    between atoms: _159  and  _160
REMARK   72  A    between atoms: _159  and  _162
REMARK   73  A    between atoms: _162  and  _163
REMARK   74  A    between atoms: _166  and  _168
REMARK   75  A    between atoms: _168  and  _169
REMARK   76  A    between atoms: _168  and  _171
REMARK   77  A    between atoms: _171  and  _172
REMARK   78  A    between atoms: _177  and  _179
REMARK   79  A    between atoms: _179  and  _180
REMARK   80  A    between atoms: _179  and  _182
REMARK   81  A    between atoms: _182  and  _183
REMARK   82  A    between atoms: _183  and  _184
REMARK   83  A    between atoms: _189  and  _191
REMARK   84  A    between atoms: _191  and  _192
REMARK   85  A    between atoms: _191  and  _194
REMARK   86  A    between atoms: _194  and  _195
REMARK   87  A    between atoms: _197  and  _199
REMARK   88  A    between atoms: _199  and  _200
REMARK   89  A    between atoms: _203  and  _205
REMARK   90  A    between atoms: _205  and  _206
REMARK   91  A    between atoms: _205  and  _208
REMARK   92  A    between atoms: _211  and  _213
REMARK   93  A    between atoms: _213  and  _214
REMARK   94  A    between atoms: _213  and  _216
REMARK   95  A    between atoms: _216  and  _217
REMARK   96  A    between atoms: _220  and  _222
REMARK   97  A    between atoms: _222  and  _223
REMARK   98  A    between atoms: _222  and  _225
REMARK   99  A    between atoms: _225  and  _226
REMARK  100  A    between atoms: _229  and  _231
REMARK  101  A    between atoms: _231  and  _232
REMARK  102  A    between atoms: _231  and  _234
REMARK  103  A    between atoms: _234  and  _235
REMARK  104  A    between atoms: _240  and  _242
REMARK  105  A    between atoms: _242  and  _243
REMARK  106  A    between atoms: _246  and  _248
REMARK  107  A    between atoms: _248  and  _249
REMARK  108  A    between atoms: _248  and  _251
REMARK  109  A    between atoms: _251  and  _252
REMARK  110  A    between atoms: _252  and  _253
REMARK  111  A    between atoms: _258  and  _260
REMARK  112  A    between atoms: _260  and  _261
REMARK  113  A    between atoms: _260  and  _263
REMARK  114  A    between atoms: _263  and  _264
REMARK  115  A    between atoms: _270  and  _272
REMARK  116  A    between atoms: _272  and  _273
REMARK  117  A    between atoms: _272  and  _275
REMARK  118  A    between atoms: _275  and  _276
REMARK  119  A    between atoms: _281  and  _283
REMARK  120  A    between atoms: _283  and  _284
REMARK  121  A    between atoms: _283  and  _286
REMARK  122  A    between atoms: _286  and  _287
REMARK  123  A    between atoms: _290  and  _292
REMARK  124  A    between atoms: _292  and  _293
REMARK  125  A    between atoms: _292  and  _295
REMARK  126  A    between atoms: _295  and  _296
REMARK  127  A    between atoms: _299  and  _301
REMARK  128  A    between atoms: _301  and  _302
REMARK  129  A    between atoms: _304  and  _306
REMARK  130  A    between atoms: _306  and  _307
REMARK  131  A    between atoms: _306  and  _309
REMARK  132  A    between atoms: _309  and  _310
REMARK  133  A    between atoms: _313  and  _315
REMARK  134  A    between atoms: _315  and  _316
REMARK  135  A    between atoms: _315  and  _318
REMARK  136  A    between atoms: _318  and  _319
REMARK  137  A    between atoms: _319  and  _320
REMARK  138  A    between atoms: _320  and  _321
REMARK  139  A    between atoms: _330  and  _332
REMARK  140  A    between atoms: _332  and  _333
REMARK  141  A    between atoms: _335  and  _337
REMARK  142  A    between atoms: _337  and  _338
REMARK  143  A    between atoms: _337  and  _340
REMARK  144  A    between atoms: _340  and  _341
REMARK  145  A    between atoms: _341  and  _342
REMARK  146  A    between atoms: _345  and  _346
REMARK  147  A    between atoms: _351  and  _353
REMARK  148  A    between atoms: _353  and  _354
REMARK  149  A    between atoms: _353  and  _356
REMARK  150  A    between atoms: _356  and  _357
REMARK  151  A    between atoms: _357  and  _358
REMARK  152  A    between atoms: _363  and  _365
REMARK  153  A    between atoms: _365  and  _366
REMARK  154  A    between atoms: _365  and  _368
REMARK  155  A    between atoms: _368  and  _369
REMARK  156  A    between atoms: _372  and  _374
REMARK  157  A    between atoms: _374  and  _375
REMARK  158  A    between atoms: _374  and  _377
REMARK  159  A    between atoms: _377  and  _378
REMARK  160  A    between atoms: _378  and  _379
REMARK  161  A    between atoms: _382  and  _384
REMARK  162  A    between atoms: _384  and  _385
REMARK  163  A    between atoms: _384  and  _387
REMARK  164  A    between atoms: _390  and  _392
REMARK  165  A    between atoms: _392  and  _393
REMARK  166  A    between atoms: _392  and  _395
REMARK  167  A    between atoms: _395  and  _396
REMARK  168  A    between atoms: _398  and  _400
REMARK  169  A    between atoms: _400  and  _401
REMARK  170  A    between atoms: _404  and  _406
REMARK  171  A    between atoms: _406  and  _407
REMARK  172  A    between atoms: _406  and  _409
REMARK  173  A    between atoms: _410  and  _411
REMARK  174  A    between atoms: _412  and  _413
REMARK  175  A    between atoms: _417  and  _419
REMARK  176  A    between atoms: _419  and  _420
REMARK  177  A    between atoms: _419  and  _422
REMARK  178  A    between atoms: _422  and  _423
REMARK  179  A    between atoms: _428  and  _430
REMARK  180  A    between atoms: _430  and  _431
REMARK  181  A    between atoms: _430  and  _433
REMARK  182  A    between atoms: _433  and  _434
REMARK  183  A    between atoms: _437  and  _439
REMARK  184  A    between atoms: _439  and  _440
REMARK  185  A    between atoms: _439  and  _442
REMARK  186  A    between atoms: _442  and  _443
REMARK  187  A    between atoms: _448  and  _450
REMARK  188  A    between atoms: _450  and  _451
REMARK  189  A    between atoms: _450  and  _453
REMARK  190  A    between atoms: _453  and  _454
REMARK  191  A    between atoms: _454  and  _455
REMARK  192  A    between atoms: _455  and  _456
REMARK  193  A    between atoms: _465  and  _467
REMARK  194  A    between atoms: _467  and  _468
REMARK  195  A    between atoms: _467  and  _470
REMARK  196  A    between atoms: _470  and  _471
REMARK  197  A    between atoms: _471  and  _472
REMARK  198  A    between atoms: _475  and  _477
REMARK  199  A    between atoms: _477  and  _478
REMARK  200  A    between atoms: _477  and  _480
REMARK  201  A    between atoms: _483  and  _485
REMARK  202  A    between atoms: _485  and  _486
REMARK  203  A    between atoms: _485  and  _488
REMARK  204  A    between atoms: _488  and  _489
REMARK  205  A    between atoms: _489  and  _490
REMARK  206  A    between atoms: _495  and  _497
REMARK  207  A    between atoms: _497  and  _498
REMARK  208  A    between atoms: _497  and  _500
REMARK  209  A    between atoms: _500  and  _501
REMARK  210  A    between atoms: _504  and  _506
REMARK  211  A    between atoms: _506  and  _507
REMARK  212  A    between atoms: _506  and  _509
REMARK  213  A    between atoms: _509  and  _510
REMARK  214  A    between atoms: _515  and  _517
REMARK  215  A    between atoms: _517  and  _518
REMARK  216  A    between atoms: _517  and  _520
REMARK  217  A    between atoms: _520  and  _521
REMARK  218  A    between atoms: _521  and  _522
REMARK  219  A    between atoms: _527  and  _529
REMARK  220  A    between atoms: _529  and  _530
REMARK  221  A    between atoms: _532  and  _534
REMARK  222  A    between atoms: _534  and  _535
REMARK  223  A    between atoms: _534  and  _537
REMARK  224  A    between atoms: _537  and  _538
REMARK  225  A    between atoms: _543  and  _545
REMARK  226  A    between atoms: _545  and  _546
REMARK  227  A    between atoms: _545  and  _548
REMARK  228  A    between atoms: _548  and  _549
REMARK  229  A    between atoms: _552  and  _554
REMARK  230  A    between atoms: _554  and  _555
REMARK  231  A    between atoms: _554  and  _557
REMARK  232  A    between atoms: _557  and  _558
REMARK  233  A    between atoms: _560  and  _562
REMARK  234  A    between atoms: _562  and  _563
REMARK  235  A    between atoms: _562  and  _565
REMARK  236  A    between atoms: _565  and  _566
REMARK  237  A    between atoms: _566  and  _567
REMARK                            x       y       z     vdW  Elec       q    Type
REMARK                         _______ _______ _______ _____ _____    ______ ____
ROOT
ATOM      1  CA  ALA A   1      53.329  98.475  23.773  0.00  0.00    +0.133 C 
ATOM      2  CB  ALA A   1      53.889  97.045  23.904  0.00  0.00    +0.027 C 
ENDROOT
BRANCH   1   3
ATOM      3  N   ALA A   1      51.871  98.499  23.892  0.00  0.00    -0.239 NA
ATOM      4  H   ALA A   1      51.372  97.601  24.052  0.00  0.00    +0.142 HD
ENDBRANCH   1   3
BRANCH   1   5
ATOM      5  C   ALA A   1      53.823  99.115  22.501  0.00  0.00    +0.224 C 
ATOM      6  O   ALA A   1      54.751  99.935  22.567  0.00  0.00    -0.287 OA
ENDBRANCH   1   5
TORSDOF 2
REMARK  Name = ../refined-set-2016/4ezz/4ezz_pocket.pdb
REMARK  237 active torsions:
REMARK  status: ('A' for Active; 'I' for Inactive)
REMARK    1  A    between atoms: _1  and  _3
REMARK    2  A    between atoms: _3  and  _4
REMARK    3  A    between atoms: _3  and  _6
REMARK    4  A    between atoms: _6  and  _7
REMARK    5  A    between atoms: _10  and  _12
REMARK    6  A    between atoms: _12  and  _13
REMARK    7  A    between atoms: _12  and  _15
REMARK    8  A    between atoms: _15  and  _16
REMARK    9  A    between atoms: _16  and  _17
REMARK   10  A    between atoms: _20  and  _22
REMARK   11  A    between atoms: _22  and  _23
REMARK   12  A    between atoms: _22  and  _25
REMARK   13  A    between atoms: _25  and  _26
REMARK   14  A    between atoms: _29  and  _31
REMARK   15  A    between atoms: _31  and  _32
REMARK   16  A    between atoms: _31  and  _34
REMARK   17  A    between atoms: _34  and  _35
REMARK   18  A    between atoms: _35  and  _36
REMARK   19  A    between atoms: _38  and  _40
REMARK   20  A    between atoms: _40  and  _41
REMARK   21  A    between atoms: _43  and  _45
REMARK   22  A    between atoms: _45  and  _46
REMARK   23  A    between atoms: _48  and  _50
REMARK   24  A    between atoms: _50  and  _51
REMARK   25  A    between atoms: _50  and  _53
REMARK   26  A    between atoms: _56  and  _58
REMARK   27  A    between atoms: _58  and  _59
REMARK   28  A    between atoms: _58  and  _61
REMARK   29  A    between atoms: _61  and  _62
REMARK   30  A    between atoms: _62  and  _63
REMARK   31  A    between atoms: _65  and  _67
REMARK   32  A    between atoms: _67  and  _68
REMARK   33  A    between atoms: _67  and  _70
REMARK   34  A    between atoms: _70  and  _71
REMARK   35  A    between atoms: _74  and  _76
REMARK   36  A    between atoms: _76  and  _77
REMARK   37  A    between atoms: _76  and  _79
REMARK   38  A    between atoms: _79  and  _80
REMARK   39  A    between atoms: _83  and  _85
REMARK   40  A    between atoms: _85  and  _86
REMARK   41  A    between atoms: _85  and  _88
REMARK   42  A    between atoms: _88  and  _89
REMARK   43  A    between atoms: _92  and  _94
REMARK   44  A    between atoms: _94  and  _95
REMARK   45  A    between atoms: _94  and  _97
REMARK   46  A    between atoms: _97  and  _98
REMARK   47  A    between atoms: _98  and  _99
REMARK   48  A    between atoms: _104  and  _106
REMARK   49  A    between atoms: _106  and  _107
REMARK   50  A    between atoms: _106  and  _109
REMARK   51  A    between atoms: _112  and  _114
REMARK   52  A    between atoms: _114  and  _115
REMARK   53  A    between atoms: _114  and  _117
REMARK   54  A    between atoms: _117  and  _118
REMARK   55  A    between atoms: _124  and  _126
REMARK   56  A    between atoms: _126  and  _127
REMARK   57  A    between atoms: _126  and  _129
REMARK   58  A    between atoms: _129  and  _130
REMARK   59  A    between atoms: _132  and  _134
REMARK   60  A    between atoms: _134  and  _135
REMARK   61  A    between atoms: _134  and  _137
REMARK   62  A    between atoms: _137  and  _138
REMARK   63  A    between atoms: _141  and  _143
REMARK   64  A    between atoms: _143  and  _144
REMARK   65  A    between atoms: _147  and  _149
REMARK   66  A    between atoms: _149  and  _150
REMARK   67  A    between atoms: _149  and  _152
REMARK   68  A    between atoms: _152  and  _153
REMARK   69  A    between atoms: _153  and  _154
REMARK   70  A    between atoms: _157  and  _159
REMARK   71  A    between atoms: _159  and  _160
REMARK   72  A    between atoms: _159  and  _162
REMARK   73  A    between atoms: _162  and  _163
REMARK   74  A    between atoms: _166  and  _168
REMARK   75  A    between atoms: _168  and  _169
REMARK   76  A    between atoms: _168  and  _171
REMARK   77  A    between atoms: _171  and  _172
REMARK   78  A    between atoms: _177  and  _179
REMARK   79  A    between atoms: _179  and  _180
REMARK   80  A    between atoms: _179  and  _182
REMARK   81  A    between atoms: _182  and  _183
REMARK   82  A    between atoms: _183  and  _184
REMARK   83  A    between atoms: _189  and  _191
REMARK   84  A    between atoms: _191  and  _192
REMARK   85  A    between atoms: _191  and  _194
REMARK   86  A    between atoms: _194  and  _195
REMARK   87  A    between atoms: _197  and  _199
REMARK   88  A    between atoms: _199  and  _200
REMARK   89  A    between atoms: _203  and  _205
REMARK   90  A    between atoms: _205  and  _206
REMARK   91  A    between atoms: _205  and  _208
REMARK   92  A    between atoms: _211  and  _213
REMARK   93  A    between atoms: _213  and  _214
REMARK   94  A    between atoms: _213  and  _216
REMARK   95  A    between atoms: _216  and  _217
REMARK   96  A    between atoms: _220  and  _222
REMARK   97  A    between atoms: _222  and  _223
REMARK   98  A    between atoms: _222  and  _225
REMARK   99  A    between atoms: _225  and  _226
REMARK  100  A    between atoms: _229  and  _231
REMARK  101  A    between atoms: _231  and  _232
REMARK  102  A    between atoms: _231  and  _234
REMARK  103  A    between atoms: _234  and  _235
REMARK  104  A    between atoms: _240  and  _242
REMARK  105  A    between atoms: _242  and  _243
REMARK  106  A    between atoms: _246  and  _248
REMARK  107  A    between atoms: _248  and  _249
REMARK  108  A    between atoms: _248  and  _251
REMARK  109  A    between atoms: _251  and  _252
REMARK  110  A    between atoms: _252  and  _253
REMARK  111  A    between atoms: _258  and  _260
REMARK  112  A    between atoms: _260  and  _261
REMARK  113  A    between atoms: _260  and  _263
REMARK  114  A    between atoms: _263  and  _264
REMARK  115  A    between atoms: _270  and  _272
REMARK  116  A    between atoms: _272  and  _273
REMARK  117  A    between atoms: _272  and  _275
REMARK  118  A    between atoms: _275  and  _276
REMARK  119  A    between atoms: _281  and  _283
REMARK  120  A    between atoms: _283  and  _284
REMARK  121  A    between atoms: _283  and  _286
REMARK  122  A    between atoms: _286  and  _287
REMARK  123  A    between atoms: _290  and  _292
REMARK  124  A    between atoms: _292  and  _293
REMARK  125  A    between atoms: _292  and  _295
REMARK  126  A    between atoms: _295  and  _296
REMARK  127  A    between atoms: _299  and  _301
REMARK  128  A    between atoms: _301  and  _302
REMARK  129  A    between atoms: _304  and  _306
REMARK  130  A    between atoms: _306  and  _307
REMARK  131  A    between atoms: _306  and  _309
REMARK  132  A    between atoms: _309  and  _310
REMARK  133  A    between atoms: _313  and  _315
REMARK  134  A    between atoms: _315  and  _316
REMARK  135  A    between atoms: _315  and  _318
REMARK  136  A    between atoms: _318  and  _319
REMARK  137  A    between atoms: _319  and  _320
REMARK  138  A    between atoms: _320  and  _321
REMARK  139  A    between atoms: _330  and  _332
REMARK  140  A    between atoms: _332  and  _333
REMARK  141  A    between atoms: _335  and  _337
REMARK  142  A    between atoms: _337  and  _338
REMARK  143  A    between atoms: _337  and  _340
REMARK  144  A    between atoms: _340  and  _341
REMARK  145  A    between atoms: _341  and  _342
REMARK  146  A    between atoms: _345  and  _346
REMARK  147  A    between atoms: _351  and  _353
REMARK  148  A    between atoms: _353  and  _354
REMARK  149  A    between atoms: _353  and  _356
REMARK  150  A    between atoms: _356  and  _357
REMARK  151  A    between atoms: _357  and  _358
REMARK  152  A    between atoms: _363  and  _365
REMARK  153  A    between atoms: _365  and  _366
REMARK  154  A    between atoms: _365  and  _368
REMARK  155  A    between atoms: _368  and  _369
REMARK  156  A    between atoms: _372  and  _374
REMARK  157  A    between atoms: _374  and  _375
REMARK  158  A    between atoms: _374  and  _377
REMARK  159  A    between atoms: _377  and  _378
REMARK  160  A    between atoms: _378  and  _379
REMARK  161  A    between atoms: _382  and  _384
REMARK  162  A    between atoms: _384  and  _385
REMARK  163  A    between atoms: _384  and  _387
REMARK  164  A    between atoms: _390  and  _392
REMARK  165  A    between atoms: _392  and  _393
REMARK  166  A    between atoms: _392  and  _395
REMARK  167  A    between atoms: _395  and  _396
REMARK  168  A    between atoms: _398  and  _400
REMARK  169  A    between atoms: _400  and  _401
REMARK  170  A    between atoms: _404  and  _406
REMARK  171  A    between atoms: _406  and  _407
REMARK  172  A    between atoms: _406  and  _409
REMARK  173  A    between atoms: _410  and  _411
REMARK  174  A    between atoms: _412  and  _413
REMARK  175  A    between atoms: _417  and  _419
REMARK  176  A    between atoms: _419  and  _420
REMARK  177  A    between atoms: _419  and  _422
REMARK  178  A    between atoms: _422  and  _423
REMARK  179  A    between atoms: _428  and  _430
REMARK  180  A    between atoms: _430  and  _431
REMARK  181  A    between atoms: _430  and  _433
REMARK  182  A    between atoms: _433  and  _434
REMARK  183  A    between atoms: _437  and  _439
REMARK  184  A    between atoms: _439  and  _440
REMARK  185  A    between atoms: _439  and  _442
REMARK  186  A    between atoms: _442  and  _443
REMARK  187  A    between atoms: _448  and  _450
REMARK  188  A    between atoms: _450  and  _451
REMARK  189  A    between atoms: _450  and  _453
REMARK  190  A    between atoms: _453  and  _454
REMARK  191  A    between atoms: _454  and  _455
REMARK  192  A    between atoms: _455  and  _456
REMARK  193  A    between atoms: _465  and  _467
REMARK  194  A    between atoms: _467  and  _468
REMARK  195  A    between atoms: _467  and  _470
REMARK  196  A    between atoms: _470  and  _471
REMARK  197  A    between atoms: _471  and  _472
REMARK  198  A    between atoms: _475  and  _477
REMARK  199  A    between atoms: _477  and  _478
REMARK  200  A    between atoms: _477  and  _480
REMARK  201  A    between atoms: _483  and  _485
REMARK  202  A    between atoms: _485  and  _486
REMARK  203  A    between atoms: _485  and  _488
REMARK  204  A    between atoms: _488  and  _489
REMARK  205  A    between atoms: _489  and  _490
REMARK  206  A    between atoms: _495  and  _497
REMARK  207  A    between atoms: _497  and  _498
REMARK  208  A    between atoms: _497  and  _500
REMARK  209  A    between atoms: _500  and  _501
REMARK  210  A    between atoms: _504  and  _506
REMARK  211  A    between atoms: _506  and  _507
REMARK  212  A    between atoms: _506  and  _509
REMARK  213  A    between atoms: _509  and  _510
REMARK  214  A    between atoms: _515  and  _517
REMARK  215  A    between atoms: _517  and  _518
REMARK  216  A    between atoms: _517  and  _520
REMARK  217  A    between atoms: _520  and  _521
REMARK  218  A    between atoms: _521  and  _522
REMARK  219  A    between atoms: _527  and  _529
REMARK  220  A    between atoms: _529  and  _530
REMARK  221  A    between atoms: _532  and  _534
REMARK  222  A    between atoms: _534  and  _535
REMARK  223  A    between atoms: _534  and  _537
REMARK  224  A    between atoms: _537  and  _538
REMARK  225  A    between atoms: _543  and  _545
REMARK  226  A    between atoms: _545  and  _546
REMARK  227  A    between atoms: _545  and  _548
REMARK  228  A    between atoms: _548  and  _549
REMARK  229  A    between atoms: _552  and  _554
REMARK  230  A    between atoms: _554  and  _555
REMARK  231  A    between atoms: _554  and  _557
REMARK  232  A    between atoms: _557  and  _558
REMARK  233  A    between atoms: _560  and  _562
REMARK  234  A    between atoms: _562  and  _563
REMARK  235  A    between atoms: _562  and  _565
REMARK  236  A    between atoms: _565  and  _566
REMARK  237  A    between atoms: _566  and  _567
REMARK                            x       y       z     vdW  Elec       q    Type
REMARK                         _______ _______ _______ _____ _____    ______ ____
ROOT
ATOM      1  C   ASN A   3      66.701  87.031  27.217  0.00  0.00    +0.241 C 
ATOM      2  N   LEU A   4      66.013  86.307  28.090  0.00  0.00    -0.297 N 
ATOM      3  H   LEU A   4      64.974  86.336  28.076  0.00  0.00    +0.150 HD
ATOM      4  O   ASN A   3      67.859  87.312  27.398  0.00  0.00    -0.273 OA
ENDROOT
BRANCH   1   5
ATOM      5  CA  ASN A   3      65.964  87.602  25.992  0.00  0.00    +0.158 C 
BRANCH   5   8
ATOM      6  C   PHE A   2      66.017  90.028  25.662  0.00  0.00    +0.241 C 
ATOM      7  O   PHE A   2      64.851  90.171  26.014  0.00  0.00    -0.273 OA
ATOM      8  N   ASN A   3      66.609  88.843  25.561  0.00  0.00    -0.297 N 
ATOM      9  H   ASN A   3      67.568  88.795  25.160  0.00  0.00    +0.150 HD
BRANCH   6  10
ATOM     10  CA  PHE A   2      66.839  91.233  25.216  0.00  0.00    +0.153 C 
BRANCH  10  12
ATOM     11  C   GLN A   1      66.068  93.346  24.167  0.00  0.00    +0.238 C 
ATOM     12  N   PHE A   2      65.898  92.374  25.070  0.00  0.00    -0.297 N 
ATOM     13  H   PHE A   2      65.070  92.419  25.698  0.00  0.00    +0.150 HD
ATOM     14  O   GLN A   1      67.020  93.399  23.429  0.00  0.00    -0.274 OA
BRANCH  11  15
ATOM     15  CA  GLN A   1      64.956  94.385  24.026  0.00  0.00    +0.145 C 
BRANCH  15  16
ATOM     16  N   GLN A   1      65.513  95.677  23.794  0.00  0.00    -0.238 NA
ATOM     17  H   GLN A   1      66.454  95.741  23.356  0.00  0.00    +0.142 HD
ENDBRANCH  15  16
BRANCH  15  18
ATOM     18  CB  GLN A   1      64.130  94.026  22.794  0.00  0.00    +0.036 C 
BRANCH  18  19
ATOM     19  CG  GLN A   1      63.331  92.741  22.974  0.00  0.00    +0.087 C 
BRANCH  19  20
ATOM     20  CD  GLN A   1      62.770  92.208  21.659  0.00  0.00    +0.219 C 
ATOM     21  NE2 GLN A   1      63.194  91.031  21.278  0.00  0.00    -0.329 N 
ATOM     22 HE21 GLN A   1      63.901  90.523  21.848  0.00  0.00    +0.145 HD
ATOM     23 HE22 GLN A   1      62.824  90.603  20.405  0.00  0.00    +0.145 HD
ATOM     24  OE1 GLN A   1      61.934  92.849  21.019  0.00  0.00    -0.275 OA
ENDBRANCH  19  20
ENDBRANCH  18  19
ENDBRANCH  15  18
ENDBRANCH  11  15
ENDBRANCH  10  12
BRANCH  10  25
ATOM     25  CB  PHE A   2      67.934  91.534  26.237  0.00  0.00    +0.055 C 
BRANCH  25  26
ATOM     26  CG  PHE A   2      67.414  91.777  27.658  0.00  0.00    -0.020 A 
ATOM     27  CD2 PHE A   2      67.601  90.821  28.653  0.00  0.00    -0.004 A 
ATOM     28  CE2 PHE A   2      67.161  91.026  29.949  0.00  0.00    -0.000 A 
ATOM     29  CZ  PHE A   2      66.529  92.201  30.277  0.00  0.00    -0.000 A 
ATOM     30  CE1 PHE A   2      66.374  93.180  29.317  0.00  0.00    -0.000 A 
ATOM     31  CD1 PHE A   2      66.801  92.970  28.004  0.00  0.00    -0.004 A 
ENDBRANCH  25  26
ENDBRANCH  10  25
ENDBRANCH   6  10
ENDBRANCH   5   8
BRANCH   5  32
ATOM     32  CB  ASN A   3      65.994  86.601  24.838  0.00  0.00    +0.114 C 
BRANCH  32  33
ATOM     33  CG  ASN A   3      64.841  86.804  23.839  0.00  0.00    +0.222 C 
ATOM     34  OD1 ASN A   3      64.189  87.832  23.779  0.00  0.00    -0.275 OA
ATOM     35  ND2 ASN A   3      64.586  85.800  23.077  0.00  0.00    -0.329 N 
ATOM     36 HD21 ASN A   3      65.158  84.934  23.149  0.00  0.00    +0.145 HD
ATOM     37 HD22 ASN A   3      63.808  85.854  22.389  0.00  0.00    +0.145 HD
ENDBRANCH  32  33
ENDBRANCH   5  32
ENDBRANCH   1   5
BRANCH   2  38
ATOM     38  CA  LEU A   4      66.685  85.485  29.052  0.00  0.00    +0.149 C 
BRANCH  38  39
ATOM     39  C   LEU A   4      66.297  84.101  28.596  0.00  0.00    +0.241 C 
ATOM     40  O   LEU A   4      65.115  83.826  28.465  0.00  0.00    -0.273 OA
ATOM     41  N   ASP A   5      67.282  83.232  28.284  0.00  0.00    -0.297 N 
ATOM     42  H   ASP A   5      68.273  83.546  28.243  0.00  0.00    +0.150 HD
BRANCH  41  43
ATOM     43  CA  ASP A   5      66.936  81.869  28.011  0.00  0.00    +0.160 C 
BRANCH  43  44
ATOM     44  C   ASP A   5      67.444  80.929  29.111  0.00  0.00    +0.241 C 
ATOM     45  O   ASP A   5      67.770  81.382  30.223  0.00  0.00    -0.273 OA
ATOM     46  N   GLY A   6      67.473  79.630  28.776  0.00  0.00    -0.295 N 
ATOM     47  H   GLY A   6      67.209  79.375  27.803  0.00  0.00    +0.150 HD
BRANCH  46  48
ATOM     48  CA  GLY A   6      67.852  78.544  29.688  0.00  0.00    +0.176 C 
BRANCH  48  49
ATOM     49  C   GLY A   6      66.823  78.323  30.812  0.00  0.00    +0.243 C 
ATOM     50  O   GLY A   6      67.173  77.876  31.922  0.00  0.00    -0.273 OA
ATOM     51  N   ILE A   7      65.564  78.641  30.531  0.00  0.00    -0.298 N 
ATOM     52  H   ILE A   7      65.333  79.062  29.608  0.00  0.00    +0.150 HD
BRANCH  51  53
ATOM     53  CA  ILE A   7      64.496  78.405  31.509  0.00  0.00    +0.137 C 
BRANCH  53  54
ATOM     54  C   ILE A   7      64.252  76.899  31.420  0.00  0.00    +0.227 C 
ATOM     55  O   ILE A   7      64.165  76.356  30.332  0.00  0.00    -0.286 OA
ENDBRANCH  53  54
BRANCH  53  56
ATOM     56  CB  ILE A   7      63.232  79.235  31.220  0.00  0.00    +0.026 C 
ATOM     57  CG2 ILE A   7      62.087  78.865  32.160  0.00  0.00    +0.002 C 
BRANCH  56  58
ATOM     58  CG1 ILE A   7      63.545  80.701  31.431  0.00  0.00    +0.002 C 
ATOM     59  CD1 ILE A   7      62.417  81.576  30.943  0.00  0.00    +0.000 C 
ENDBRANCH  56  58
ENDBRANCH  53  56
ENDBRANCH  51  53
ENDBRANCH  48  49
ENDBRANCH  46  48
ENDBRANCH  43  44
BRANCH  43  60
ATOM     60  CB  ASP A   5      67.419  81.449  26.626  0.00  0.00    +0.143 C 
BRANCH  60  61
ATOM     61  CG  ASP A   5      68.891  81.377  26.545  0.00  0.00    +0.367 C 
ATOM     62  OD2 ASP A   5      69.533  81.731  27.554  0.00  0.00    -0.246 OA
ATOM     63  OD1 ASP A   5      69.432  80.982  25.476  0.00  0.00    -0.246 OA
ENDBRANCH  60  61
ENDBRANCH  43  60
ENDBRANCH  41  43
ENDBRANCH  38  39
BRANCH  38  64
ATOM     64  CB  LEU A   4      66.249  85.821  30.480  0.00  0.00    +0.029 C 
BRANCH  64  65
ATOM     65  CG  LEU A   4      66.661  84.865  31.591  0.00  0.00    +0.002 C 
ATOM     66  CD2 LEU A   4      65.880  85.124  32.868  0.00  0.00    +0.000 C 
ATOM     67  CD1 LEU A   4      68.144  84.930  31.883  0.00  0.00    +0.000 C 
ENDBRANCH  64  65
ENDBRANCH  38  64
ENDBRANCH   2  38
TORSDOF 27
REMARK  Name = ../refined-set-2016/4ezz/4ezz_pocket.pdb
REMARK  237 active torsions:
REMARK  status: ('A' for Active; 'I' for Inactive)
REMARK    1  A    between atoms: _1  and  _3
REMARK    2  A    between atoms: _3  and  _4
REMARK    3  A    between atoms: _3  and  _6
REMARK    4  A    between atoms: _6  and  _7
REMARK    5  A    between atoms: _10  and  _12
REMARK    6  A    between atoms: _12  and  _13
REMARK    7  A    between atoms: _12  and  _15
REMARK    8  A    between atoms: _15  and  _16
REMARK    9  A    between atoms: _16  and  _17
REMARK   10  A    between atoms: _20  and  _22
REMARK   11  A    between atoms: _22  and  _23
REMARK   12  A    between atoms: _22  and  _25
REMARK   13  A    between atoms: _25  and  _26
REMARK   14  A    between atoms: _29  and  _31
REMARK   15  A    between atoms: _31  and  _32
REMARK   16  A    between atoms: _31  and  _34
REMARK   17  A    between atoms: _34  and  _35
REMARK   18  A    between atoms: _35  and  _36
REMARK   19  A    between atoms: _38  and  _40
REMARK   20  A    between atoms: _40  and  _41
REMARK   21  A    between atoms: _43  and  _45
REMARK   22  A    between atoms: _45  and  _46
REMARK   23  A    between atoms: _48  and  _50
REMARK   24  A    between atoms: _50  and  _51
REMARK   25  A    between atoms: _50  and  _53
REMARK   26  A    between atoms: _56  and  _58
REMARK   27  A    between atoms: _58  and  _59
REMARK   28  A    between atoms: _58  and  _61
REMARK   29  A    between atoms: _61  and  _62
REMARK   30  A    between atoms: _62  and  _63
REMARK   31  A    between atoms: _65  and  _67
REMARK   32  A    between atoms: _67  and  _68
REMARK   33  A    between atoms: _67  and  _70
REMARK   34  A    between atoms: _70  and  _71
REMARK   35  A    between atoms: _74  and  _76
REMARK   36  A    between atoms: _76  and  _77
REMARK   37  A    between atoms: _76  and  _79
REMARK   38  A    between atoms: _79  and  _80
REMARK   39  A    between atoms: _83  and  _85
REMARK   40  A    between atoms: _85  and  _86
REMARK   41  A    between atoms: _85  and  _88
REMARK   42  A    between atoms: _88  and  _89
REMARK   43  A    between atoms: _92  and  _94
REMARK   44  A    between atoms: _94  and  _95
REMARK   45  A    between atoms: _94  and  _97
REMARK   46  A    between atoms: _97  and  _98
REMARK   47  A    between atoms: _98  and  _99
REMARK   48  A    between atoms: _104  and  _106
REMARK   49  A    between atoms: _106  and  _107
REMARK   50  A    between atoms: _106  and  _109
REMARK   51  A    between atoms: _112  and  _114
REMARK   52  A    between atoms: _114  and  _115
REMARK   53  A    between atoms: _114  and  _117
REMARK   54  A    between atoms: _117  and  _118
REMARK   55  A    between atoms: _124  and  _126
REMARK   56  A    between atoms: _126  and  _127
REMARK   57  A    between atoms: _126  and  _129
REMARK   58  A    between atoms: _129  and  _130
REMARK   59  A    between atoms: _132  and  _134
REMARK   60  A    between atoms: _134  and  _135
REMARK   61  A    between atoms: _134  and  _137
REMARK   62  A    between atoms: _137  and  _138
REMARK   63  A    between atoms: _141  and  _143
REMARK   64  A    between atoms: _143  and  _144
REMARK   65  A    between atoms: _147  and  _149
REMARK   66  A    between atoms: _149  and  _150
REMARK   67  A    between atoms: _149  and  _152
REMARK   68  A    between atoms: _152  and  _153
REMARK   69  A    between atoms: _153  and  _154
REMARK   70  A    between atoms: _157  and  _159
REMARK   71  A    between atoms: _159  and  _160
REMARK   72  A    between atoms: _159  and  _162
REMARK   73  A    between atoms: _162  and  _163
REMARK   74  A    between atoms: _166  and  _168
REMARK   75  A    between atoms: _168  and  _169
REMARK   76  A    between atoms: _168  and  _171
REMARK   77  A    between atoms: _171  and  _172
REMARK   78  A    between atoms: _177  and  _179
REMARK   79  A    between atoms: _179  and  _180
REMARK   80  A    between atoms: _179  and  _182
REMARK   81  A    between atoms: _182  and  _183
REMARK   82  A    between atoms: _183  and  _184
REMARK   83  A    between atoms: _189  and  _191
REMARK   84  A    between atoms: _191  and  _192
REMARK   85  A    between atoms: _191  and  _194
REMARK   86  A    between atoms: _194  and  _195
REMARK   87  A    between atoms: _197  and  _199
REMARK   88  A    between atoms: _199  and  _200
REMARK   89  A    between atoms: _203  and  _205
REMARK   90  A    between atoms: _205  and  _206
REMARK   91  A    between atoms: _205  and  _208
REMARK   92  A    between atoms: _211  and  _213
REMARK   93  A    between atoms: _213  and  _214
REMARK   94  A    between atoms: _213  and  _216
REMARK   95  A    between atoms: _216  and  _217
REMARK   96  A    between atoms: _220  and  _222
REMARK   97  A    between atoms: _222  and  _223
REMARK   98  A    between atoms: _222  and  _225
REMARK   99  A    between atoms: _225  and  _226
REMARK  100  A    between atoms: _229  and  _231
REMARK  101  A    between atoms: _231  and  _232
REMARK  102  A    between atoms: _231  and  _234
REMARK  103  A    between atoms: _234  and  _235
REMARK  104  A    between atoms: _240  and  _242
REMARK  105  A    between atoms: _242  and  _243
REMARK  106  A    between atoms: _246  and  _248
REMARK  107  A    between atoms: _248  and  _249
REMARK  108  A    between atoms: _248  and  _251
REMARK  109  A    between atoms: _251  and  _252
REMARK  110  A    between atoms: _252  and  _253
REMARK  111  A    between atoms: _258  and  _260
REMARK  112  A    between atoms: _260  and  _261
REMARK  113  A    between atoms: _260  and  _263
REMARK  114  A    between atoms: _263  and  _264
REMARK  115  A    between atoms: _270  and  _272
REMARK  116  A    between atoms: _272  and  _273
REMARK  117  A    between atoms: _272  and  _275
REMARK  118  A    between atoms: _275  and  _276
REMARK  119  A    between atoms: _281  and  _283
REMARK  120  A    between atoms: _283  and  _284
REMARK  121  A    between atoms: _283  and  _286
REMARK  122  A    between atoms: _286  and  _287
REMARK  123  A    between atoms: _290  and  _292
REMARK  124  A    between atoms: _292  and  _293
REMARK  125  A    between atoms: _292  and  _295
REMARK  126  A    between atoms: _295  and  _296
REMARK  127  A    between atoms: _299  and  _301
REMARK  128  A    between atoms: _301  and  _302
REMARK  129  A    between atoms: _304  and  _306
REMARK  130  A    between atoms: _306  and  _307
REMARK  131  A    between atoms: _306  and  _309
REMARK  132  A    between atoms: _309  and  _310
REMARK  133  A    between atoms: _313  and  _315
REMARK  134  A    between atoms: _315  and  _316
REMARK  135  A    between atoms: _315  and  _318
REMARK  136  A    between atoms: _318  and  _319
REMARK  137  A    between atoms: _319  and  _320
REMARK  138  A    between atoms: _320  and  _321
REMARK  139  A    between atoms: _330  and  _332
REMARK  140  A    between atoms: _332  and  _333
REMARK  141  A    between atoms: _335  and  _337
REMARK  142  A    between atoms: _337  and  _338
REMARK  143  A    between atoms: _337  and  _340
REMARK  144  A    between atoms: _340  and  _341
REMARK  145  A    between atoms: _341  and  _342
REMARK  146  A    between atoms: _345  and  _346
REMARK  147  A    between atoms: _351  and  _353
REMARK  148  A    between atoms: _353  and  _354
REMARK  149  A    between atoms: _353  and  _356
REMARK  150  A    between atoms: _356  and  _357
REMARK  151  A    between atoms: _357  and  _358
REMARK  152  A    between atoms: _363  and  _365
REMARK  153  A    between atoms: _365  and  _366
REMARK  154  A    between atoms: _365  and  _368
REMARK  155  A    between atoms: _368  and  _369
REMARK  156  A    between atoms: _372  and  _374
REMARK  157  A    between atoms: _374  and  _375
REMARK  158  A    between atoms: _374  and  _377
REMARK  159  A    between atoms: _377  and  _378
REMARK  160  A    between atoms: _378  and  _379
REMARK  161  A    between atoms: _382  and  _384
REMARK  162  A    between atoms: _384  and  _385
REMARK  163  A    between atoms: _384  and  _387
REMARK  164  A    between atoms: _390  and  _392
REMARK  165  A    between atoms: _392  and  _393
REMARK  166  A    between atoms: _392  and  _395
REMARK  167  A    between atoms: _395  and  _396
REMARK  168  A    between atoms: _398  and  _400
REMARK  169  A    between atoms: _400  and  _401
REMARK  170  A    between atoms: _404  and  _406
REMARK  171  A    between atoms: _406  and  _407
REMARK  172  A    between atoms: _406  and  _409
REMARK  173  A    between atoms: _410  and  _411
REMARK  174  A    between atoms: _412  and  _413
REMARK  175  A    between atoms: _417  and  _419
REMARK  176  A    between atoms: _419  and  _420
REMARK  177  A    between atoms: _419  and  _422
REMARK  178  A    between atoms: _422  and  _423
REMARK  179  A    between atoms: _428  and  _430
REMARK  180  A    between atoms: _430  and  _431
REMARK  181  A    between atoms: _430  and  _433
REMARK  182  A    between atoms: _433  and  _434
REMARK  183  A    between atoms: _437  and  _439
REMARK  184  A    between atoms: _439  and  _440
REMARK  185  A    between atoms: _439  and  _442
REMARK  186  A    between atoms: _442  and  _443
REMARK  187  A    between atoms: _448  and  _450
REMARK  188  A    between atoms: _450  and  _451
REMARK  189  A    between atoms: _450  and  _453
REMARK  190  A    between atoms: _453  and  _454
REMARK  191  A    between atoms: _454  and  _455
REMARK  192  A    between atoms: _455  and  _456
REMARK  193  A    between atoms: _465  and  _467
REMARK  194  A    between atoms: _467  and  _468
REMARK  195  A    between atoms: _467  and  _470
REMARK  196  A    between atoms: _470  and  _471
REMARK  197  A    between atoms: _471  and  _472
REMARK  198  A    between atoms: _475  and  _477
REMARK  199  A    between atoms: _477  and  _478
REMARK  200  A    between atoms: _477  and  _480
REMARK  201  A    between atoms: _483  and  _485
REMARK  202  A    between atoms: _485  and  _486
REMARK  203  A    between atoms: _485  and  _488
REMARK  204  A    between atoms: _488  and  _489
REMARK  205  A    between atoms: _489  and  _490
REMARK  206  A    between atoms: _495  and  _497
REMARK  207  A    between atoms: _497  and  _498
REMARK  208  A    between atoms: _497  and  _500
REMARK  209  A    between atoms: _500  and  _501
REMARK  210  A    between atoms: _504  and  _506
REMARK  211  A    between atoms: _506  and  _507
REMARK  212  A    between atoms: _506  and  _509
REMARK  213  A    between atoms: _509  and  _510
REMARK  214  A    between atoms: _515  and  _517
REMARK  215  A    between atoms: _517  and  _518
REMARK  216  A    between atoms: _517  and  _520
REMARK  217  A    between atoms: _520  and  _521
REMARK  218  A    between atoms: _521  and  _522
REMARK  219  A    between atoms: _527  and  _529
REMARK  220  A    between atoms: _529  and  _530
REMARK  221  A    between atoms: _532  and  _534
REMARK  222  A    between atoms: _534  and  _535
REMARK  223  A    between atoms: _534  and  _537
REMARK  224  A    between atoms: _537  and  _538
REMARK  225  A    between atoms: _543  and  _545
REMARK  226  A    between atoms: _545  and  _546
REMARK  227  A    between atoms: _545  and  _548
REMARK  228  A    between atoms: _548  and  _549
REMARK  229  A    between atoms: _552  and  _554
REMARK  230  A    between atoms: _554  and  _555
REMARK  231  A    between atoms: _554  and  _557
REMARK  232  A    between atoms: _557  and  _558
REMARK  233  A    between atoms: _560  and  _562
REMARK  234  A    between atoms: _562  and  _563
REMARK  235  A    between atoms: _562  and  _565
REMARK  236  A    between atoms: _565  and  _566
REMARK  237  A    between atoms: _566  and  _567
REMARK                            x       y       z     vdW  Elec       q    Type
REMARK                         _______ _______ _______ _____ _____    ______ ____
ROOT
ATOM      1  C   PRO A   4      58.836  81.365  37.039  0.00  0.00    +0.241 C 
ATOM      2  N   GLN A   5      59.779  81.737  37.929  0.00  0.00    -0.297 N 
ATOM      3  H   GLN A   5      60.514  81.051  38.194  0.00  0.00    +0.150 HD
ATOM      4  O   PRO A   4      57.851  82.102  36.739  0.00  0.00    -0.273 OA
ENDROOT
BRANCH   1   8
ATOM      5  C   MET A   3      56.962  78.978  37.309  0.00  0.00    +0.244 C 
ATOM      6  O   MET A   3      57.342  79.308  38.448  0.00  0.00    -0.273 OA
ATOM      7  N   PRO A   4      57.732  79.162  36.213  0.00  0.00    -0.272 N 
ATOM      8  CA  PRO A   4      58.986  79.915  36.431  0.00  0.00    +0.152 C 
ATOM      9  CB  PRO A   4      59.646  79.924  35.030  0.00  0.00    +0.031 C 
ATOM     10  CG  PRO A   4      58.930  78.810  34.242  0.00  0.00    +0.024 C 
ATOM     11  CD  PRO A   4      57.514  78.858  34.779  0.00  0.00    +0.094 C 
BRANCH   5  12
ATOM     12  CA  MET A   3      55.579  78.377  37.130  0.00  0.00    +0.150 C 
BRANCH  12  15
ATOM     13  C   GLY A   2      53.945  79.896  36.179  0.00  0.00    +0.243 C 
ATOM     14  O   GLY A   2      53.737  80.412  37.296  0.00  0.00    -0.273 OA
ATOM     15  N   MET A   3      54.807  78.897  35.996  0.00  0.00    -0.297 N 
ATOM     16  H   MET A   3      54.933  78.486  35.049  0.00  0.00    +0.150 HD
BRANCH  13  17
ATOM     17  CA  GLY A   2      53.213  80.374  34.941  0.00  0.00    +0.176 C 
BRANCH  17  20
ATOM     18  C   ARG A   1      53.033  78.413  33.555  0.00  0.00    +0.238 C 
ATOM     19  O   ARG A   1      52.234  77.870  34.348  0.00  0.00    -0.274 OA
ATOM     20  N   GLY A   2      53.597  79.598  33.786  0.00  0.00    -0.296 N 
ATOM     21  H   GLY A   2      54.317  79.965  33.131  0.00  0.00    +0.150 HD
BRANCH  18  22
ATOM     22  CA  ARG A   1      53.402  77.757  32.233  0.00  0.00    +0.145 C 
BRANCH  22  23
ATOM     23  N   ARG A   1      53.494  76.298  32.312  0.00  0.00    -0.238 NA
ATOM     24  H   ARG A   1      52.955  75.713  31.642  0.00  0.00    +0.142 HD
ENDBRANCH  22  23
BRANCH  22  25
ATOM     25  CB  ARG A   1      52.344  78.159  31.198  0.00  0.00    +0.030 C 
BRANCH  25  26
ATOM     26  CG  ARG A   1      50.988  77.539  31.444  0.00  0.00    +0.045 C 
BRANCH  26  27
ATOM     27  CD  ARG A   1      50.017  78.110  30.416  0.00  0.00    +0.174 C 
BRANCH  27  28
ATOM     28  NE  ARG A   1      49.382  79.339  30.876  0.00  0.00    -0.265 N 
ATOM     29  HE  ARG A   1      49.623  79.683  31.827  0.00  0.00    +0.259 HD
ATOM     30  CZ  ARG A   1      48.515  80.049  30.159  0.00  0.00    +0.342 C 
ATOM     31  NH2 ARG A   1      47.977  81.144  30.698  0.00  0.00    -0.292 N 
ATOM     32 HH21 ARG A   1      48.237  81.430  31.663  0.00  0.00    +0.255 HD
ATOM     33 HH22 ARG A   1      47.297  81.712  30.153  0.00  0.00    +0.255 HD
ATOM     34  NH1 ARG A   1      48.163  79.639  28.916  0.00  0.00    -0.292 N 
ATOM     35 HH11 ARG A   1      48.571  78.768  28.521  0.00  0.00    +0.255 HD
ATOM     36 HH12 ARG A   1      47.485  80.196  28.357  0.00  0.00    +0.255 HD
ENDBRANCH  27  28
ENDBRANCH  26  27
ENDBRANCH  25  26
ENDBRANCH  22  25
ENDBRANCH  18  22
ENDBRANCH  17  20
ENDBRANCH  13  17
ENDBRANCH  12  15
BRANCH  12  37
ATOM     37  CB  MET A   3      55.608  76.846  37.111  0.00  0.00    +0.041 C 
BRANCH  37  38
ATOM     38  CG  MET A   3      54.218  76.229  37.241  0.00  0.00    +0.060 C 
BRANCH  38  39
ATOM     39  SD  MET A   3      53.420  76.556  38.814  0.00  0.00    -0.139 S 
ATOM     40  CE  MET A   3      54.473  75.783  40.050  0.00  0.00    +0.069 C 
ENDBRANCH  38  39
ENDBRANCH  37  38
ENDBRANCH  12  37
ENDBRANCH   5  12
ENDBRANCH   1   8
BRANCH   2  41
ATOM     41  CA  GLN A   5      59.807  83.050  38.527  0.00  0.00    +0.149 C 
BRANCH  41  42
ATOM     42  C   GLN A   5      60.950  83.869  37.882  0.00  0.00    +0.241 C 
ATOM     43  O   GLN A   5      62.090  83.636  38.143  0.00  0.00    -0.273 OA
ATOM     44  N   ILE A   6      60.584  84.798  37.002  0.00  0.00    -0.297 N 
ATOM     45  H   ILE A   6      59.572  84.920  36.798  0.00  0.00    +0.150 HD
BRANCH  44  46
ATOM     46  CA  ILE A   6      61.541  85.650  36.314  0.00  0.00    +0.149 C 
BRANCH  46  47
ATOM     47  C   ILE A   6      61.445  87.025  36.951  0.00  0.00    +0.241 C 
ATOM     48  N   GLU A   7      62.425  87.435  37.725  0.00  0.00    -0.297 N 
ATOM     49  H   GLU A   7      63.279  86.853  37.842  0.00  0.00    +0.150 HD
ATOM     50  O   ILE A   6      60.474  87.711  36.759  0.00  0.00    -0.273 OA
BRANCH  48  51
ATOM     51  CA  GLU A   7      62.307  88.693  38.407  0.00  0.00    +0.149 C 
BRANCH  51  52
ATOM     52  C   GLU A   7      62.909  89.791  37.551  0.00  0.00    +0.241 C 
ATOM     53  N   VAL A   8      62.106  90.811  37.227  0.00  0.00    -0.298 N 
ATOM     54  H   VAL A   8      61.132  90.827  37.592  0.00  0.00    +0.150 HD
ATOM     55  O   GLU A   7      64.088  89.695  37.167  0.00  0.00    -0.273 OA
BRANCH  53  56
ATOM     56  CA  VAL A   8      62.569  91.912  36.366  0.00  0.00    +0.137 C 
BRANCH  56  57
ATOM     57  CB  VAL A   8      61.538  92.205  35.259  0.00  0.00    +0.026 C 
ATOM     58  CG2 VAL A   8      61.889  93.440  34.412  0.00  0.00    +0.002 C 
ATOM     59  CG1 VAL A   8      61.449  90.969  34.353  0.00  0.00    +0.002 C 
ENDBRANCH  56  57
BRANCH  56  60
ATOM     60  C   VAL A   8      62.826  93.113  37.265  0.00  0.00    +0.227 C 
ATOM     61  O   VAL A   8      61.948  93.477  38.012  0.00  0.00    -0.286 OA
ENDBRANCH  56  60
ENDBRANCH  53  56
ENDBRANCH  51  52
BRANCH  51  62
ATOM     62  CB  GLU A   7      63.024  88.632  39.730  0.00  0.00    +0.041 C 
BRANCH  62  63
ATOM     63  CG  GLU A   7      63.423  89.984  40.150  0.00  0.00    +0.116 C 
BRANCH  63  64
ATOM     64  CD  GLU A   7      63.687  90.029  41.613  0.00  0.00    +0.365 C 
ATOM     65  OE2 GLU A   7      62.908  90.721  42.296  0.00  0.00    -0.246 OA
ATOM     66  OE1 GLU A   7      64.654  89.380  42.049  0.00  0.00    -0.246 OA
ENDBRANCH  63  64
ENDBRANCH  62  63
ENDBRANCH  51  62
ENDBRANCH  48  51
ENDBRANCH  46  47
BRANCH  46  67
ATOM     67  CB  ILE A   6      61.182  85.830  34.823  0.00  0.00    +0.027 C 
ATOM     68  CG2 ILE A   6      62.212  86.734  34.208  0.00  0.00    +0.002 C 
BRANCH  67  69
ATOM     69  CG1 ILE A   6      61.076  84.489  34.074  0.00  0.00    +0.002 C 
ATOM     70  CD1 ILE A   6      62.259  83.522  34.367  0.00  0.00    +0.000 C 
ENDBRANCH  67  69
ENDBRANCH  46  67
ENDBRANCH  44  46
ENDBRANCH  41  42
BRANCH  41  71
ATOM     71  CB  GLN A   5      60.025  82.946  40.043  0.00  0.00    +0.039 C 
BRANCH  71  72
ATOM     72  CG  GLN A   5      58.898  82.133  40.688  0.00  0.00    +0.087 C 
BRANCH  72  73
ATOM     73  CD  GLN A   5      59.249  81.824  42.102  0.00  0.00    +0.219 C 
ATOM     74  OE1 GLN A   5      59.551  82.732  42.855  0.00  0.00    -0.275 OA
ATOM     75  NE2 GLN A   5      59.304  80.542  42.453  0.00  0.00    -0.329 N 
ATOM     76 HE21 GLN A   5      59.616  80.278  43.409  0.00  0.00    +0.145 HD
ATOM     77 HE22 GLN A   5      59.035  79.804  41.771  0.00  0.00    +0.145 HD
ENDBRANCH  72  73
ENDBRANCH  71  72
ENDBRANCH  41  71
ENDBRANCH   2  41
TORSDOF 31
REMARK  Name = ../refined-set-2016/4ezz/4ezz_pocket.pdb
REMARK  237 active torsions:
REMARK  status: ('A' for Active; 'I' for Inactive)
REMARK    1  A    between atoms: _1  and  _3
REMARK    2  A    between atoms: _3  and  _4
REMARK    3  A    between atoms: _3  and  _6
REMARK    4  A    between atoms: _6  and  _7
REMARK    5  A    between atoms: _10  and  _12
REMARK    6  A    between atoms: _12  and  _13
REMARK    7  A    between atoms: _12  and  _15
REMARK    8  A    between atoms: _15  and  _16
REMARK    9  A    between atoms: _16  and  _17
REMARK   10  A    between atoms: _20  and  _22
REMARK   11  A    between atoms: _22  and  _23
REMARK   12  A    between atoms: _22  and  _25
REMARK   13  A    between atoms: _25  and  _26
REMARK   14  A    between atoms: _29  and  _31
REMARK   15  A    between atoms: _31  and  _32
REMARK   16  A    between atoms: _31  and  _34
REMARK   17  A    between atoms: _34  and  _35
REMARK   18  A    between atoms: _35  and  _36
REMARK   19  A    between atoms: _38  and  _40
REMARK   20  A    between atoms: _40  and  _41
REMARK   21  A    between atoms: _43  and  _45
REMARK   22  A    between atoms: _45  and  _46
REMARK   23  A    between atoms: _48  and  _50
REMARK   24  A    between atoms: _50  and  _51
REMARK   25  A    between atoms: _50  and  _53
REMARK   26  A    between atoms: _56  and  _58
REMARK   27  A    between atoms: _58  and  _59
REMARK   28  A    between atoms: _58  and  _61
REMARK   29  A    between atoms: _61  and  _62
REMARK   30  A    between atoms: _62  and  _63
REMARK   31  A    between atoms: _65  and  _67
REMARK   32  A    between atoms: _67  and  _68
REMARK   33  A    between atoms: _67  and  _70
REMARK   34  A    between atoms: _70  and  _71
REMARK   35  A    between atoms: _74  and  _76
REMARK   36  A    between atoms: _76  and  _77
REMARK   37  A    between atoms: _76  and  _79
REMARK   38  A    between atoms: _79  and  _80
REMARK   39  A    between atoms: _83  and  _85
REMARK   40  A    between atoms: _85  and  _86
REMARK   41  A    between atoms: _85  and  _88
REMARK   42  A    between atoms: _88  and  _89
REMARK   43  A    between atoms: _92  and  _94
REMARK   44  A    between atoms: _94  and  _95
REMARK   45  A    between atoms: _94  and  _97
REMARK   46  A    between atoms: _97  and  _98
REMARK   47  A    between atoms: _98  and  _99
REMARK   48  A    between atoms: _104  and  _106
REMARK   49  A    between atoms: _106  and  _107
REMARK   50  A    between atoms: _106  and  _109
REMARK   51  A    between atoms: _112  and  _114
REMARK   52  A    between atoms: _114  and  _115
REMARK   53  A    between atoms: _114  and  _117
REMARK   54  A    between atoms: _117  and  _118
REMARK   55  A    between atoms: _124  and  _126
REMARK   56  A    between atoms: _126  and  _127
REMARK   57  A    between atoms: _126  and  _129
REMARK   58  A    between atoms: _129  and  _130
REMARK   59  A    between atoms: _132  and  _134
REMARK   60  A    between atoms: _134  and  _135
REMARK   61  A    between atoms: _134  and  _137
REMARK   62  A    between atoms: _137  and  _138
REMARK   63  A    between atoms: _141  and  _143
REMARK   64  A    between atoms: _143  and  _144
REMARK   65  A    between atoms: _147  and  _149
REMARK   66  A    between atoms: _149  and  _150
REMARK   67  A    between atoms: _149  and  _152
REMARK   68  A    between atoms: _152  and  _153
REMARK   69  A    between atoms: _153  and  _154
REMARK   70  A    between atoms: _157  and  _159
REMARK   71  A    between atoms: _159  and  _160
REMARK   72  A    between atoms: _159  and  _162
REMARK   73  A    between atoms: _162  and  _163
REMARK   74  A    between atoms: _166  and  _168
REMARK   75  A    between atoms: _168  and  _169
REMARK   76  A    between atoms: _168  and  _171
REMARK   77  A    between atoms: _171  and  _172
REMARK   78  A    between atoms: _177  and  _179
REMARK   79  A    between atoms: _179  and  _180
REMARK   80  A    between atoms: _179  and  _182
REMARK   81  A    between atoms: _182  and  _183
REMARK   82  A    between atoms: _183  and  _184
REMARK   83  A    between atoms: _189  and  _191
REMARK   84  A    between atoms: _191  and  _192
REMARK   85  A    between atoms: _191  and  _194
REMARK   86  A    between atoms: _194  and  _195
REMARK   87  A    between atoms: _197  and  _199
REMARK   88  A    between atoms: _199  and  _200
REMARK   89  A    between atoms: _203  and  _205
REMARK   90  A    between atoms: _205  and  _206
REMARK   91  A    between atoms: _205  and  _208
REMARK   92  A    between atoms: _211  and  _213
REMARK   93  A    between atoms: _213  and  _214
REMARK   94  A    between atoms: _213  and  _216
REMARK   95  A    between atoms: _216  and  _217
REMARK   96  A    between atoms: _220  and  _222
REMARK   97  A    between atoms: _222  and  _223
REMARK   98  A    between atoms: _222  and  _225
REMARK   99  A    between atoms: _225  and  _226
REMARK  100  A    between atoms: _229  and  _231
REMARK  101  A    between atoms: _231  and  _232
REMARK  102  A    between atoms: _231  and  _234
REMARK  103  A    between atoms: _234  and  _235
REMARK  104  A    between atoms: _240  and  _242
REMARK  105  A    between atoms: _242  and  _243
REMARK  106  A    between atoms: _246  and  _248
REMARK  107  A    between atoms: _248  and  _249
REMARK  108  A    between atoms: _248  and  _251
REMARK  109  A    between atoms: _251  and  _252
REMARK  110  A    between atoms: _252  and  _253
REMARK  111  A    between atoms: _258  and  _260
REMARK  112  A    between atoms: _260  and  _261
REMARK  113  A    between atoms: _260  and  _263
REMARK  114  A    between atoms: _263  and  _264
REMARK  115  A    between atoms: _270  and  _272
REMARK  116  A    between atoms: _272  and  _273
REMARK  117  A    between atoms: _272  and  _275
REMARK  118  A    between atoms: _275  and  _276
REMARK  119  A    between atoms: _281  and  _283
REMARK  120  A    between atoms: _283  and  _284
REMARK  121  A    between atoms: _283  and  _286
REMARK  122  A    between atoms: _286  and  _287
REMARK  123  A    between atoms: _290  and  _292
REMARK  124  A    between atoms: _292  and  _293
REMARK  125  A    between atoms: _292  and  _295
REMARK  126  A    between atoms: _295  and  _296
REMARK  127  A    between atoms: _299  and  _301
REMARK  128  A    between atoms: _301  and  _302
REMARK  129  A    between atoms: _304  and  _306
REMARK  130  A    between atoms: _306  and  _307
REMARK  131  A    between atoms: _306  and  _309
REMARK  132  A    between atoms: _309  and  _310
REMARK  133  A    between atoms: _313  and  _315
REMARK  134  A    between atoms: _315  and  _316
REMARK  135  A    between atoms: _315  and  _318
REMARK  136  A    between atoms: _318  and  _319
REMARK  137  A    between atoms: _319  and  _320
REMARK  138  A    between atoms: _320  and  _321
REMARK  139  A    between atoms: _330  and  _332
REMARK  140  A    between atoms: _332  and  _333
REMARK  141  A    between atoms: _335  and  _337
REMARK  142  A    between atoms: _337  and  _338
REMARK  143  A    between atoms: _337  and  _340
REMARK  144  A    between atoms: _340  and  _341
REMARK  145  A    between atoms: _341  and  _342
REMARK  146  A    between atoms: _345  and  _346
REMARK  147  A    between atoms: _351  and  _353
REMARK  148  A    between atoms: _353  and  _354
REMARK  149  A    between atoms: _353  and  _356
REMARK  150  A    between atoms: _356  and  _357
REMARK  151  A    between atoms: _357  and  _358
REMARK  152  A    between atoms: _363  and  _365
REMARK  153  A    between atoms: _365  and  _366
REMARK  154  A    between atoms: _365  and  _368
REMARK  155  A    between atoms: _368  and  _369
REMARK  156  A    between atoms: _372  and  _374
REMARK  157  A    between atoms: _374  and  _375
REMARK  158  A    between atoms: _374  and  _377
REMARK  159  A    between atoms: _377  and  _378
REMARK  160  A    between atoms: _378  and  _379
REMARK  161  A    between atoms: _382  and  _384
REMARK  162  A    between atoms: _384  and  _385
REMARK  163  A    between atoms: _384  and  _387
REMARK  164  A    between atoms: _390  and  _392
REMARK  165  A    between atoms: _392  and  _393
REMARK  166  A    between atoms: _392  and  _395
REMARK  167  A    between atoms: _395  and  _396
REMARK  168  A    between atoms: _398  and  _400
REMARK  169  A    between atoms: _400  and  _401
REMARK  170  A    between atoms: _404  and  _406
REMARK  171  A    between atoms: _406  and  _407
REMARK  172  A    between atoms: _406  and  _409
REMARK  173  A    between atoms: _410  and  _411
REMARK  174  A    between atoms: _412  and  _413
REMARK  175  A    between atoms: _417  and  _419
REMARK  176  A    between atoms: _419  and  _420
REMARK  177  A    between atoms: _419  and  _422
REMARK  178  A    between atoms: _422  and  _423
REMARK  179  A    between atoms: _428  and  _430
REMARK  180  A    between atoms: _430  and  _431
REMARK  181  A    between atoms: _430  and  _433
REMARK  182  A    between atoms: _433  and  _434
REMARK  183  A    between atoms: _437  and  _439
REMARK  184  A    between atoms: _439  and  _440
REMARK  185  A    between atoms: _439  and  _442
REMARK  186  A    between atoms: _442  and  _443
REMARK  187  A    between atoms: _448  and  _450
REMARK  188  A    between atoms: _450  and  _451
REMARK  189  A    between atoms: _450  and  _453
REMARK  190  A    between atoms: _453  and  _454
REMARK  191  A    between atoms: _454  and  _455
REMARK  192  A    between atoms: _455  and  _456
REMARK  193  A    between atoms: _465  and  _467
REMARK  194  A    between atoms: _467  and  _468
REMARK  195  A    between atoms: _467  and  _470
REMARK  196  A    between atoms: _470  and  _471
REMARK  197  A    between atoms: _471  and  _472
REMARK  198  A    between atoms: _475  and  _477
REMARK  199  A    between atoms: _477  and  _478
REMARK  200  A    between atoms: _477  and  _480
REMARK  201  A    between atoms: _483  and  _485
REMARK  202  A    between atoms: _485  and  _486
REMARK  203  A    between atoms: _485  and  _488
REMARK  204  A    between atoms: _488  and  _489
REMARK  205  A    between atoms: _489  and  _490
REMARK  206  A    between atoms: _495  and  _497
REMARK  207  A    between atoms: _497  and  _498
REMARK  208  A    between atoms: _497  and  _500
REMARK  209  A    between atoms: _500  and  _501
REMARK  210  A    between atoms: _504  and  _506
REMARK  211  A    between atoms: _506  and  _507
REMARK  212  A    between atoms: _506  and  _509
REMARK  213  A    between atoms: _509  and  _510
REMARK  214  A    between atoms: _515  and  _517
REMARK  215  A    between atoms: _517  and  _518
REMARK  216  A    between atoms: _517  and  _520
REMARK  217  A    between atoms: _520  and  _521
REMARK  218  A    between atoms: _521  and  _522
REMARK  219  A    between atoms: _527  and  _529
REMARK  220  A    between atoms: _529  and  _530
REMARK  221  A    between atoms: _532  and  _534
REMARK  222  A    between atoms: _534  and  _535
REMARK  223  A    between atoms: _534  and  _537
REMARK  224  A    between atoms: _537  and  _538
REMARK  225  A    between atoms: _543  and  _545
REMARK  226  A    between atoms: _545  and  _546
REMARK  227  A    between atoms: _545  and  _548
REMARK  228  A    between atoms: _548  and  _549
REMARK  229  A    between atoms: _552  and  _554
REMARK  230  A    between atoms: _554  and  _555
REMARK  231  A    between atoms: _554  and  _557
REMARK  232  A    between atoms: _557  and  _558
REMARK  233  A    between atoms: _560  and  _562
REMARK  234  A    between atoms: _562  and  _563
REMARK  235  A    between atoms: _562  and  _565
REMARK  236  A    between atoms: _565  and  _566
REMARK  237  A    between atoms: _566  and  _567
REMARK                            x       y       z     vdW  Elec       q    Type
REMARK                         _______ _______ _______ _____ _____    ______ ____
ROOT
ATOM      1  C   ALA A   2      66.676  88.503  34.988  0.00  0.00    +0.241 C 
ATOM      2  N   LYS A   3      66.275  88.006  36.160  0.00  0.00    -0.295 N 
ATOM      3  H   LYS A   3      65.468  88.454  36.639  0.00  0.00    +0.150 HD
ATOM      4  O   ALA A   2      67.664  88.104  34.390  0.00  0.00    -0.273 OA
ENDROOT
BRANCH   1   5
ATOM      5  CA  ALA A   2      65.892  89.669  34.411  0.00  0.00    +0.149 C 
ATOM      6  CB  ALA A   2      65.203  89.244  33.139  0.00  0.00    +0.031 C 
BRANCH   5   9
ATOM      7  C   SER A   1      66.715  91.939  34.593  0.00  0.00    +0.241 C 
ATOM      8  O   SER A   1      65.644  92.322  35.114  0.00  0.00    -0.274 OA
ATOM      9  N   ALA A   2      66.868  90.706  34.112  0.00  0.00    -0.297 N 
ATOM     10  H   ALA A   2      67.692  90.483  33.518  0.00  0.00    +0.150 HD
BRANCH   7  11
ATOM     11  CA  SER A   1      67.912  92.885  34.460  0.00  0.00    +0.174 C 
BRANCH  11  12
ATOM     12  N   SER A   1      67.423  94.255  34.459  0.00  0.00    -0.236 NA
ATOM     13  H   SER A   1      66.960  94.638  35.308  0.00  0.00    +0.142 HD
ENDBRANCH  11  12
BRANCH  11  14
ATOM     14  CB  SER A   1      68.843  92.699  35.667  0.00  0.00    +0.163 C 
BRANCH  14  15
ATOM     15  OG  SER A   1      68.005  92.927  36.790  0.00  0.00    -0.380 OA
ATOM     16  H   SER A   1      67.264  92.270  36.786  0.00  0.00    +0.211 HD
ENDBRANCH  14  15
ENDBRANCH  11  14
ENDBRANCH   7  11
ENDBRANCH   5   9
ENDBRANCH   1   5
BRANCH   2  17
ATOM     17  CA  LYS A   3      66.926  86.847  36.809  0.00  0.00    +0.160 C 
BRANCH  17  18
ATOM     18  CB  LYS A   3      67.578  87.251  38.171  0.00  0.00    +0.001 C 
ATOM     19  CG  LYS A   3      68.359  86.143  38.915  0.00  0.00    -0.001 C 
BRANCH  19  20
ATOM     20  CD  LYS A   3      69.175  86.578  40.199  0.00  0.00    +0.014 C 
ATOM     21  CE  LYS A   3      70.501  85.754  40.463  0.00  0.00    +0.037 C 
BRANCH  21  22
ATOM     22  NZ  LYS A   3      71.357  85.910  41.772  0.00  0.00    -0.415 NA
ATOM     23  HZ1 LYS A   3      70.773  85.666  42.598  0.00  0.00    +0.121 HD
ATOM     24  HZ2 LYS A   3      71.684  86.894  41.856  0.00  0.00    +0.121 HD
ATOM     25  HZ3 LYS A   3      72.178  85.273  41.726  0.00  0.00    +0.121 HD
ENDBRANCH  21  22
ENDBRANCH  19  20
ENDBRANCH  17  18
BRANCH  17  26
ATOM     26  C   LYS A   3      65.891  85.687  36.957  0.00  0.00    +0.231 C 
ATOM     27  O   LYS A   3      64.749  85.871  37.466  0.00  0.00    -0.286 OA
ENDBRANCH  17  26
ENDBRANCH   2  17
TORSDOF 11
REMARK  Name = ../refined-set-2016/4ezz/4ezz_pocket.pdb
REMARK  237 active torsions:
REMARK  status: ('A' for Active; 'I' for Inactive)
REMARK    1  A    between atoms: _1  and  _3
REMARK    2  A    between atoms: _3  and  _4
REMARK    3  A    between atoms: _3  and  _6
REMARK    4  A    between atoms: _6  and  _7
REMARK    5  A    between atoms: _10  and  _12
REMARK    6  A    between atoms: _12  and  _13
REMARK    7  A    between atoms: _12  and  _15
REMARK    8  A    between atoms: _15  and  _16
REMARK    9  A    between atoms: _16  and  _17
REMARK   10  A    between atoms: _20  and  _22
REMARK   11  A    between atoms: _22  and  _23
REMARK   12  A    between atoms: _22  and  _25
REMARK   13  A    between atoms: _25  and  _26
REMARK   14  A    between atoms: _29  and  _31
REMARK   15  A    between atoms: _31  and  _32
REMARK   16  A    between atoms: _31  and  _34
REMARK   17  A    between atoms: _34  and  _35
REMARK   18  A    between atoms: _35  and  _36
REMARK   19  A    between atoms: _38  and  _40
REMARK   20  A    between atoms: _40  and  _41
REMARK   21  A    between atoms: _43  and  _45
REMARK   22  A    between atoms: _45  and  _46
REMARK   23  A    between atoms: _48  and  _50
REMARK   24  A    between atoms: _50  and  _51
REMARK   25  A    between atoms: _50  and  _53
REMARK   26  A    between atoms: _56  and  _58
REMARK   27  A    between atoms: _58  and  _59
REMARK   28  A    between atoms: _58  and  _61
REMARK   29  A    between atoms: _61  and  _62
REMARK   30  A    between atoms: _62  and  _63
REMARK   31  A    between atoms: _65  and  _67
REMARK   32  A    between atoms: _67  and  _68
REMARK   33  A    between atoms: _67  and  _70
REMARK   34  A    between atoms: _70  and  _71
REMARK   35  A    between atoms: _74  and  _76
REMARK   36  A    between atoms: _76  and  _77
REMARK   37  A    between atoms: _76  and  _79
REMARK   38  A    between atoms: _79  and  _80
REMARK   39  A    between atoms: _83  and  _85
REMARK   40  A    between atoms: _85  and  _86
REMARK   41  A    between atoms: _85  and  _88
REMARK   42  A    between atoms: _88  and  _89
REMARK   43  A    between atoms: _92  and  _94
REMARK   44  A    between atoms: _94  and  _95
REMARK   45  A    between atoms: _94  and  _97
REMARK   46  A    between atoms: _97  and  _98
REMARK   47  A    between atoms: _98  and  _99
REMARK   48  A    between atoms: _104  and  _106
REMARK   49  A    between atoms: _106  and  _107
REMARK   50  A    between atoms: _106  and  _109
REMARK   51  A    between atoms: _112  and  _114
REMARK   52  A    between atoms: _114  and  _115
REMARK   53  A    between atoms: _114  and  _117
REMARK   54  A    between atoms: _117  and  _118
REMARK   55  A    between atoms: _124  and  _126
REMARK   56  A    between atoms: _126  and  _127
REMARK   57  A    between atoms: _126  and  _129
REMARK   58  A    between atoms: _129  and  _130
REMARK   59  A    between atoms: _132  and  _134
REMARK   60  A    between atoms: _134  and  _135
REMARK   61  A    between atoms: _134  and  _137
REMARK   62  A    between atoms: _137  and  _138
REMARK   63  A    between atoms: _141  and  _143
REMARK   64  A    between atoms: _143  and  _144
REMARK   65  A    between atoms: _147  and  _149
REMARK   66  A    between atoms: _149  and  _150
REMARK   67  A    between atoms: _149  and  _152
REMARK   68  A    between atoms: _152  and  _153
REMARK   69  A    between atoms: _153  and  _154
REMARK   70  A    between atoms: _157  and  _159
REMARK   71  A    between atoms: _159  and  _160
REMARK   72  A    between atoms: _159  and  _162
REMARK   73  A    between atoms: _162  and  _163
REMARK   74  A    between atoms: _166  and  _168
REMARK   75  A    between atoms: _168  and  _169
REMARK   76  A    between atoms: _168  and  _171
REMARK   77  A    between atoms: _171  and  _172
REMARK   78  A    between atoms: _177  and  _179
REMARK   79  A    between atoms: _179  and  _180
REMARK   80  A    between atoms: _179  and  _182
REMARK   81  A    between atoms: _182  and  _183
REMARK   82  A    between atoms: _183  and  _184
REMARK   83  A    between atoms: _189  and  _191
REMARK   84  A    between atoms: _191  and  _192
REMARK   85  A    between atoms: _191  and  _194
REMARK   86  A    between atoms: _194  and  _195
REMARK   87  A    between atoms: _197  and  _199
REMARK   88  A    between atoms: _199  and  _200
REMARK   89  A    between atoms: _203  and  _205
REMARK   90  A    between atoms: _205  and  _206
REMARK   91  A    between atoms: _205  and  _208
REMARK   92  A    between atoms: _211  and  _213
REMARK   93  A    between atoms: _213  and  _214
REMARK   94  A    between atoms: _213  and  _216
REMARK   95  A    between atoms: _216  and  _217
REMARK   96  A    between atoms: _220  and  _222
REMARK   97  A    between atoms: _222  and  _223
REMARK   98  A    between atoms: _222  and  _225
REMARK   99  A    between atoms: _225  and  _226
REMARK  100  A    between atoms: _229  and  _231
REMARK  101  A    between atoms: _231  and  _232
REMARK  102  A    between atoms: _231  and  _234
REMARK  103  A    between atoms: _234  and  _235
REMARK  104  A    between atoms: _240  and  _242
REMARK  105  A    between atoms: _242  and  _243
REMARK  106  A    between atoms: _246  and  _248
REMARK  107  A    between atoms: _248  and  _249
REMARK  108  A    between atoms: _248  and  _251
REMARK  109  A    between atoms: _251  and  _252
REMARK  110  A    between atoms: _252  and  _253
REMARK  111  A    between atoms: _258  and  _260
REMARK  112  A    between atoms: _260  and  _261
REMARK  113  A    between atoms: _260  and  _263
REMARK  114  A    between atoms: _263  and  _264
REMARK  115  A    between atoms: _270  and  _272
REMARK  116  A    between atoms: _272  and  _273
REMARK  117  A    between atoms: _272  and  _275
REMARK  118  A    between atoms: _275  and  _276
REMARK  119  A    between atoms: _281  and  _283
REMARK  120  A    between atoms: _283  and  _284
REMARK  121  A    between atoms: _283  and  _286
REMARK  122  A    between atoms: _286  and  _287
REMARK  123  A    between atoms: _290  and  _292
REMARK  124  A    between atoms: _292  and  _293
REMARK  125  A    between atoms: _292  and  _295
REMARK  126  A    between atoms: _295  and  _296
REMARK  127  A    between atoms: _299  and  _301
REMARK  128  A    between atoms: _301  and  _302
REMARK  129  A    between atoms: _304  and  _306
REMARK  130  A    between atoms: _306  and  _307
REMARK  131  A    between atoms: _306  and  _309
REMARK  132  A    between atoms: _309  and  _310
REMARK  133  A    between atoms: _313  and  _315
REMARK  134  A    between atoms: _315  and  _316
REMARK  135  A    between atoms: _315  and  _318
REMARK  136  A    between atoms: _318  and  _319
REMARK  137  A    between atoms: _319  and  _320
REMARK  138  A    between atoms: _320  and  _321
REMARK  139  A    between atoms: _330  and  _332
REMARK  140  A    between atoms: _332  and  _333
REMARK  141  A    between atoms: _335  and  _337
REMARK  142  A    between atoms: _337  and  _338
REMARK  143  A    between atoms: _337  and  _340
REMARK  144  A    between atoms: _340  and  _341
REMARK  145  A    between atoms: _341  and  _342
REMARK  146  A    between atoms: _345  and  _346
REMARK  147  A    between atoms: _351  and  _353
REMARK  148  A    between atoms: _353  and  _354
REMARK  149  A    between atoms: _353  and  _356
REMARK  150  A    between atoms: _356  and  _357
REMARK  151  A    between atoms: _357  and  _358
REMARK  152  A    between atoms: _363  and  _365
REMARK  153  A    between atoms: _365  and  _366
REMARK  154  A    between atoms: _365  and  _368
REMARK  155  A    between atoms: _368  and  _369
REMARK  156  A    between atoms: _372  and  _374
REMARK  157  A    between atoms: _374  and  _375
REMARK  158  A    between atoms: _374  and  _377
REMARK  159  A    between atoms: _377  and  _378
REMARK  160  A    between atoms: _378  and  _379
REMARK  161  A    between atoms: _382  and  _384
REMARK  162  A    between atoms: _384  and  _385
REMARK  163  A    between atoms: _384  and  _387
REMARK  164  A    between atoms: _390  and  _392
REMARK  165  A    between atoms: _392  and  _393
REMARK  166  A    between atoms: _392  and  _395
REMARK  167  A    between atoms: _395  and  _396
REMARK  168  A    between atoms: _398  and  _400
REMARK  169  A    between atoms: _400  and  _401
REMARK  170  A    between atoms: _404  and  _406
REMARK  171  A    between atoms: _406  and  _407
REMARK  172  A    between atoms: _406  and  _409
REMARK  173  A    between atoms: _410  and  _411
REMARK  174  A    between atoms: _412  and  _413
REMARK  175  A    between atoms: _417  and  _419
REMARK  176  A    between atoms: _419  and  _420
REMARK  177  A    between atoms: _419  and  _422
REMARK  178  A    between atoms: _422  and  _423
REMARK  179  A    between atoms: _428  and  _430
REMARK  180  A    between atoms: _430  and  _431
REMARK  181  A    between atoms: _430  and  _433
REMARK  182  A    between atoms: _433  and  _434
REMARK  183  A    between atoms: _437  and  _439
REMARK  184  A    between atoms: _439  and  _440
REMARK  185  A    between atoms: _439  and  _442
REMARK  186  A    between atoms: _442  and  _443
REMARK  187  A    between atoms: _448  and  _450
REMARK  188  A    between atoms: _450  and  _451
REMARK  189  A    between atoms: _450  and  _453
REMARK  190  A    between atoms: _453  and  _454
REMARK  191  A    between atoms: _454  and  _455
REMARK  192  A    between atoms: _455  and  _456
REMARK  193  A    between atoms: _465  and  _467
REMARK  194  A    between atoms: _467  and  _468
REMARK  195  A    between atoms: _467  and  _470
REMARK  196  A    between atoms: _470  and  _471
REMARK  197  A    between atoms: _471  and  _472
REMARK  198  A    between atoms: _475  and  _477
REMARK  199  A    between atoms: _477  and  _478
REMARK  200  A    between atoms: _477  and  _480
REMARK  201  A    between atoms: _483  and  _485
REMARK  202  A    between atoms: _485  and  _486
REMARK  203  A    between atoms: _485  and  _488
REMARK  204  A    between atoms: _488  and  _489
REMARK  205  A    between atoms: _489  and  _490
REMARK  206  A    between atoms: _495  and  _497
REMARK  207  A    between atoms: _497  and  _498
REMARK  208  A    between atoms: _497  and  _500
REMARK  209  A    between atoms: _500  and  _501
REMARK  210  A    between atoms: _504  and  _506
REMARK  211  A    between atoms: _506  and  _507
REMARK  212  A    between atoms: _506  and  _509
REMARK  213  A    between atoms: _509  and  _510
REMARK  214  A    between atoms: _515  and  _517
REMARK  215  A    between atoms: _517  and  _518
REMARK  216  A    between atoms: _517  and  _520
REMARK  217  A    between atoms: _520  and  _521
REMARK  218  A    between atoms: _521  and  _522
REMARK  219  A    between atoms: _527  and  _529
REMARK  220  A    between atoms: _529  and  _530
REMARK  221  A    between atoms: _532  and  _534
REMARK  222  A    between atoms: _534  and  _535
REMARK  223  A    between atoms: _534  and  _537
REMARK  224  A    between atoms: _537  and  _538
REMARK  225  A    between atoms: _543  and  _545
REMARK  226  A    between atoms: _545  and  _546
REMARK  227  A    between atoms: _545  and  _548
REMARK  228  A    between atoms: _548  and  _549
REMARK  229  A    between atoms: _552  and  _554
REMARK  230  A    between atoms: _554  and  _555
REMARK  231  A    between atoms: _554  and  _557
REMARK  232  A    between atoms: _557  and  _558
REMARK  233  A    between atoms: _560  and  _562
REMARK  234  A    between atoms: _562  and  _563
REMARK  235  A    between atoms: _562  and  _565
REMARK  236  A    between atoms: _565  and  _566
REMARK  237  A    between atoms: _566  and  _567
REMARK                            x       y       z     vdW  Elec       q    Type
REMARK                         _______ _______ _______ _____ _____    ______ ____
ROOT
ATOM      1  CB  ASN A   1      45.595  87.030  29.208  0.00  0.00    +0.110 C 
ENDROOT
BRANCH   1   2
ATOM      2  CG  ASN A   1      46.515  87.805  28.274  0.00  0.00    +0.221 C 
ATOM      3  ND2 ASN A   1      47.279  88.762  28.821  0.00  0.00    -0.329 N 
ATOM      4 HD21 ASN A   1      47.216  88.958  29.840  0.00  0.00    +0.145 HD
ATOM      5 HD22 ASN A   1      47.934  89.308  28.226  0.00  0.00    +0.145 HD
ATOM      6  OD1 ASN A   1      46.552  87.531  27.062  0.00  0.00    -0.275 OA
ENDBRANCH   1   2
BRANCH   1   7
ATOM      7  CA  ASN A   1      44.627  86.110  28.442  0.00  0.00    +0.142 C 
BRANCH   7   8
ATOM      8  N   ASN A   1      43.737  86.880  27.553  0.00  0.00    -0.239 NA
ATOM      9  H   ASN A   1      43.674  87.912  27.669  0.00  0.00    +0.142 HD
ENDBRANCH   7   8
BRANCH   7  10
ATOM     10  C   ASN A   1      43.836  85.215  29.379  0.00  0.00    +0.225 C 
ATOM     11  O   ASN A   1      44.263  84.095  29.665  0.00  0.00    -0.287 OA
ENDBRANCH   7  10
ENDBRANCH   1   7
TORSDOF 4
REMARK  Name = ../refined-set-2016/4ezz/4ezz_pocket.pdb
REMARK  237 active torsions:
REMARK  status: ('A' for Active; 'I' for Inactive)
REMARK    1  A    between atoms: _1  and  _3
REMARK    2  A    between atoms: _3  and  _4
REMARK    3  A    between atoms: _3  and  _6
REMARK    4  A    between atoms: _6  and  _7
REMARK    5  A    between atoms: _10  and  _12
REMARK    6  A    between atoms: _12  and  _13
REMARK    7  A    between atoms: _12  and  _15
REMARK    8  A    between atoms: _15  and  _16
REMARK    9  A    between atoms: _16  and  _17
REMARK   10  A    between atoms: _20  and  _22
REMARK   11  A    between atoms: _22  and  _23
REMARK   12  A    between atoms: _22  and  _25
REMARK   13  A    between atoms: _25  and  _26
REMARK   14  A    between atoms: _29  and  _31
REMARK   15  A    between atoms: _31  and  _32
REMARK   16  A    between atoms: _31  and  _34
REMARK   17  A    between atoms: _34  and  _35
REMARK   18  A    between atoms: _35  and  _36
REMARK   19  A    between atoms: _38  and  _40
REMARK   20  A    between atoms: _40  and  _41
REMARK   21  A    between atoms: _43  and  _45
REMARK   22  A    between atoms: _45  and  _46
REMARK   23  A    between atoms: _48  and  _50
REMARK   24  A    between atoms: _50  and  _51
REMARK   25  A    between atoms: _50  and  _53
REMARK   26  A    between atoms: _56  and  _58
REMARK   27  A    between atoms: _58  and  _59
REMARK   28  A    between atoms: _58  and  _61
REMARK   29  A    between atoms: _61  and  _62
REMARK   30  A    between atoms: _62  and  _63
REMARK   31  A    between atoms: _65  and  _67
REMARK   32  A    between atoms: _67  and  _68
REMARK   33  A    between atoms: _67  and  _70
REMARK   34  A    between atoms: _70  and  _71
REMARK   35  A    between atoms: _74  and  _76
REMARK   36  A    between atoms: _76  and  _77
REMARK   37  A    between atoms: _76  and  _79
REMARK   38  A    between atoms: _79  and  _80
REMARK   39  A    between atoms: _83  and  _85
REMARK   40  A    between atoms: _85  and  _86
REMARK   41  A    between atoms: _85  and  _88
REMARK   42  A    between atoms: _88  and  _89
REMARK   43  A    between atoms: _92  and  _94
REMARK   44  A    between atoms: _94  and  _95
REMARK   45  A    between atoms: _94  and  _97
REMARK   46  A    between atoms: _97  and  _98
REMARK   47  A    between atoms: _98  and  _99
REMARK   48  A    between atoms: _104  and  _106
REMARK   49  A    between atoms: _106  and  _107
REMARK   50  A    between atoms: _106  and  _109
REMARK   51  A    between atoms: _112  and  _114
REMARK   52  A    between atoms: _114  and  _115
REMARK   53  A    between atoms: _114  and  _117
REMARK   54  A    between atoms: _117  and  _118
REMARK   55  A    between atoms: _124  and  _126
REMARK   56  A    between atoms: _126  and  _127
REMARK   57  A    between atoms: _126  and  _129
REMARK   58  A    between atoms: _129  and  _130
REMARK   59  A    between atoms: _132  and  _134
REMARK   60  A    between atoms: _134  and  _135
REMARK   61  A    between atoms: _134  and  _137
REMARK   62  A    between atoms: _137  and  _138
REMARK   63  A    between atoms: _141  and  _143
REMARK   64  A    between atoms: _143  and  _144
REMARK   65  A    between atoms: _147  and  _149
REMARK   66  A    between atoms: _149  and  _150
REMARK   67  A    between atoms: _149  and  _152
REMARK   68  A    between atoms: _152  and  _153
REMARK   69  A    between atoms: _153  and  _154
REMARK   70  A    between atoms: _157  and  _159
REMARK   71  A    between atoms: _159  and  _160
REMARK   72  A    between atoms: _159  and  _162
REMARK   73  A    between atoms: _162  and  _163
REMARK   74  A    between atoms: _166  and  _168
REMARK   75  A    between atoms: _168  and  _169
REMARK   76  A    between atoms: _168  and  _171
REMARK   77  A    between atoms: _171  and  _172
REMARK   78  A    between atoms: _177  and  _179
REMARK   79  A    between atoms: _179  and  _180
REMARK   80  A    between atoms: _179  and  _182
REMARK   81  A    between atoms: _182  and  _183
REMARK   82  A    between atoms: _183  and  _184
REMARK   83  A    between atoms: _189  and  _191
REMARK   84  A    between atoms: _191  and  _192
REMARK   85  A    between atoms: _191  and  _194
REMARK   86  A    between atoms: _194  and  _195
REMARK   87  A    between atoms: _197  and  _199
REMARK   88  A    between atoms: _199  and  _200
REMARK   89  A    between atoms: _203  and  _205
REMARK   90  A    between atoms: _205  and  _206
REMARK   91  A    between atoms: _205  and  _208
REMARK   92  A    between atoms: _211  and  _213
REMARK   93  A    between atoms: _213  and  _214
REMARK   94  A    between atoms: _213  and  _216
REMARK   95  A    between atoms: _216  and  _217
REMARK   96  A    between atoms: _220  and  _222
REMARK   97  A    between atoms: _222  and  _223
REMARK   98  A    between atoms: _222  and  _225
REMARK   99  A    between atoms: _225  and  _226
REMARK  100  A    between atoms: _229  and  _231
REMARK  101  A    between atoms: _231  and  _232
REMARK  102  A    between atoms: _231  and  _234
REMARK  103  A    between atoms: _234  and  _235
REMARK  104  A    between atoms: _240  and  _242
REMARK  105  A    between atoms: _242  and  _243
REMARK  106  A    between atoms: _246  and  _248
REMARK  107  A    between atoms: _248  and  _249
REMARK  108  A    between atoms: _248  and  _251
REMARK  109  A    between atoms: _251  and  _252
REMARK  110  A    between atoms: _252  and  _253
REMARK  111  A    between atoms: _258  and  _260
REMARK  112  A    between atoms: _260  and  _261
REMARK  113  A    between atoms: _260  and  _263
REMARK  114  A    between atoms: _263  and  _264
REMARK  115  A    between atoms: _270  and  _272
REMARK  116  A    between atoms: _272  and  _273
REMARK  117  A    between atoms: _272  and  _275
REMARK  118  A    between atoms: _275  and  _276
REMARK  119  A    between atoms: _281  and  _283
REMARK  120  A    between atoms: _283  and  _284
REMARK  121  A    between atoms: _283  and  _286
REMARK  122  A    between atoms: _286  and  _287
REMARK  123  A    between atoms: _290  and  _292
REMARK  124  A    between atoms: _292  and  _293
REMARK  125  A    between atoms: _292  and  _295
REMARK  126  A    between atoms: _295  and  _296
REMARK  127  A    between atoms: _299  and  _301
REMARK  128  A    between atoms: _301  and  _302
REMARK  129  A    between atoms: _304  and  _306
REMARK  130  A    between atoms: _306  and  _307
REMARK  131  A    between atoms: _306  and  _309
REMARK  132  A    between atoms: _309  and  _310
REMARK  133  A    between atoms: _313  and  _315
REMARK  134  A    between atoms: _315  and  _316
REMARK  135  A    between atoms: _315  and  _318
REMARK  136  A    between atoms: _318  and  _319
REMARK  137  A    between atoms: _319  and  _320
REMARK  138  A    between atoms: _320  and  _321
REMARK  139  A    between atoms: _330  and  _332
REMARK  140  A    between atoms: _332  and  _333
REMARK  141  A    between atoms: _335  and  _337
REMARK  142  A    between atoms: _337  and  _338
REMARK  143  A    between atoms: _337  and  _340
REMARK  144  A    between atoms: _340  and  _341
REMARK  145  A    between atoms: _341  and  _342
REMARK  146  A    between atoms: _345  and  _346
REMARK  147  A    between atoms: _351  and  _353
REMARK  148  A    between atoms: _353  and  _354
REMARK  149  A    between atoms: _353  and  _356
REMARK  150  A    between atoms: _356  and  _357
REMARK  151  A    between atoms: _357  and  _358
REMARK  152  A    between atoms: _363  and  _365
REMARK  153  A    between atoms: _365  and  _366
REMARK  154  A    between atoms: _365  and  _368
REMARK  155  A    between atoms: _368  and  _369
REMARK  156  A    between atoms: _372  and  _374
REMARK  157  A    between atoms: _374  and  _375
REMARK  158  A    between atoms: _374  and  _377
REMARK  159  A    between atoms: _377  and  _378
REMARK  160  A    between atoms: _378  and  _379
REMARK  161  A    between atoms: _382  and  _384
REMARK  162  A    between atoms: _384  and  _385
REMARK  163  A    between atoms: _384  and  _387
REMARK  164  A    between atoms: _390  and  _392
REMARK  165  A    between atoms: _392  and  _393
REMARK  166  A    between atoms: _392  and  _395
REMARK  167  A    between atoms: _395  and  _396
REMARK  168  A    between atoms: _398  and  _400
REMARK  169  A    between atoms: _400  and  _401
REMARK  170  A    between atoms: _404  and  _406
REMARK  171  A    between atoms: _406  and  _407
REMARK  172  A    between atoms: _406  and  _409
REMARK  173  A    between atoms: _410  and  _411
REMARK  174  A    between atoms: _412  and  _413
REMARK  175  A    between atoms: _417  and  _419
REMARK  176  A    between atoms: _419  and  _420
REMARK  177  A    between atoms: _419  and  _422
REMARK  178  A    between atoms: _422  and  _423
REMARK  179  A    between atoms: _428  and  _430
REMARK  180  A    between atoms: _430  and  _431
REMARK  181  A    between atoms: _430  and  _433
REMARK  182  A    between atoms: _433  and  _434
REMARK  183  A    between atoms: _437  and  _439
REMARK  184  A    between atoms: _439  and  _440
REMARK  185  A    between atoms: _439  and  _442
REMARK  186  A    between atoms: _442  and  _443
REMARK  187  A    between atoms: _448  and  _450
REMARK  188  A    between atoms: _450  and  _451
REMARK  189  A    between atoms: _450  and  _453
REMARK  190  A    between atoms: _453  and  _454
REMARK  191  A    between atoms: _454  and  _455
REMARK  192  A    between atoms: _455  and  _456
REMARK  193  A    between atoms: _465  and  _467
REMARK  194  A    between atoms: _467  and  _468
REMARK  195  A    between atoms: _467  and  _470
REMARK  196  A    between atoms: _470  and  _471
REMARK  197  A    between atoms: _471  and  _472
REMARK  198  A    between atoms: _475  and  _477
REMARK  199  A    between atoms: _477  and  _478
REMARK  200  A    between atoms: _477  and  _480
REMARK  201  A    between atoms: _483  and  _485
REMARK  202  A    between atoms: _485  and  _486
REMARK  203  A    between atoms: _485  and  _488
REMARK  204  A    between atoms: _488  and  _489
REMARK  205  A    between atoms: _489  and  _490
REMARK  206  A    between atoms: _495  and  _497
REMARK  207  A    between atoms: _497  and  _498
REMARK  208  A    between atoms: _497  and  _500
REMARK  209  A    between atoms: _500  and  _501
REMARK  210  A    between atoms: _504  and  _506
REMARK  211  A    between atoms: _506  and  _507
REMARK  212  A    between atoms: _506  and  _509
REMARK  213  A    between atoms: _509  and  _510
REMARK  214  A    between atoms: _515  and  _517
REMARK  215  A    between atoms: _517  and  _518
REMARK  216  A    between atoms: _517  and  _520
REMARK  217  A    between atoms: _520  and  _521
REMARK  218  A    between atoms: _521  and  _522
REMARK  219  A    between atoms: _527  and  _529
REMARK  220  A    between atoms: _529  and  _530
REMARK  221  A    between atoms: _532  and  _534
REMARK  222  A    between atoms: _534  and  _535
REMARK  223  A    between atoms: _534  and  _537
REMARK  224  A    between atoms: _537  and  _538
REMARK  225  A    between atoms: _543  and  _545
REMARK  226  A    between atoms: _545  and  _546
REMARK  227  A    between atoms: _545  and  _548
REMARK  228  A    between atoms: _548  and  _549
REMARK  229  A    between atoms: _552  and  _554
REMARK  230  A    between atoms: _554  and  _555
REMARK  231  A    between atoms: _554  and  _557
REMARK  232  A    between atoms: _557  and  _558
REMARK  233  A    between atoms: _560  and  _562
REMARK  234  A    between atoms: _562  and  _563
REMARK  235  A    between atoms: _562  and  _565
REMARK  236  A    between atoms: _565  and  _566
REMARK  237  A    between atoms: _566  and  _567
REMARK                            x       y       z     vdW  Elec       q    Type
REMARK                         _______ _______ _______ _____ _____    ______ ____
ROOT
ATOM      1  C   ASP A   1      44.209  80.582  28.194  0.00  0.00    +0.239 C 
ATOM      2  N   HIS A   2      44.135  81.160  29.390  0.00  0.00    -0.298 N 
ATOM      3  H   HIS A   2      43.906  82.173  29.450  0.00  0.00    +0.150 HD
ATOM      4  O   ASP A   1      44.529  79.408  28.051  0.00  0.00    -0.274 OA
ENDROOT
BRANCH   1   5
ATOM      5  CA  ASP A   1      43.938  81.489  26.968  0.00  0.00    +0.156 C 
BRANCH   5   6
ATOM      6  N   ASP A   1      42.774  82.349  27.158  0.00  0.00    -0.238 NA
ATOM      7  H   ASP A   1      42.904  83.379  27.090  0.00  0.00    +0.142 HD
ENDBRANCH   5   6
BRANCH   5   8
ATOM      8  CB  ASP A   1      45.167  82.368  26.701  0.00  0.00    +0.140 C 
BRANCH   8   9
ATOM      9  CG  ASP A   1      46.390  81.568  26.139  0.00  0.00    +0.367 C 
ATOM     10  OD2 ASP A   1      47.366  81.396  26.890  0.00  0.00    -0.246 OA
ATOM     11  OD1 ASP A   1      46.399  81.148  24.952  0.00  0.00    -0.246 OA
ENDBRANCH   8   9
ENDBRANCH   5   8
ENDBRANCH   1   5
BRANCH   2  12
ATOM     12  CA  HIS A   2      44.365  80.414  30.613  0.00  0.00    +0.143 C 
BRANCH  12  13
ATOM     13  C   HIS A   2      43.293  79.372  30.780  0.00  0.00    +0.227 C 
ATOM     14  O   HIS A   2      43.544  78.280  31.267  0.00  0.00    -0.286 OA
ENDBRANCH  12  13
BRANCH  12  15
ATOM     15  CB  HIS A   2      44.408  81.358  31.822  0.00  0.00    +0.075 C 
BRANCH  15  16
ATOM     16  CG  HIS A   2      44.234  80.660  33.168  0.00  0.00    +0.082 A 
ATOM     17  CD2 HIS A   2      45.087  80.562  34.272  0.00  0.00    +0.115 A 
ATOM     18  NE2 HIS A   2      44.448  79.802  35.216  0.00  0.00    -0.221 NA
ATOM     19  CE1 HIS A   2      43.246  79.429  34.737  0.00  0.00    +0.199 A 
ATOM     20  ND1 HIS A   2      43.111  79.956  33.497  0.00  0.00    -0.227 NA
ENDBRANCH  15  16
ENDBRANCH  12  15
ENDBRANCH   2  12
TORSDOF 8
REMARK  Name = ../refined-set-2016/4ezz/4ezz_pocket.pdb
REMARK  237 active torsions:
REMARK  status: ('A' for Active; 'I' for Inactive)
REMARK    1  A    between atoms: _1  and  _3
REMARK    2  A    between atoms: _3  and  _4
REMARK    3  A    between atoms: _3  and  _6
REMARK    4  A    between atoms: _6  and  _7
REMARK    5  A    between atoms: _10  and  _12
REMARK    6  A    between atoms: _12  and  _13
REMARK    7  A    between atoms: _12  and  _15
REMARK    8  A    between atoms: _15  and  _16
REMARK    9  A    between atoms: _16  and  _17
REMARK   10  A    between atoms: _20  and  _22
REMARK   11  A    between atoms: _22  and  _23
REMARK   12  A    between atoms: _22  and  _25
REMARK   13  A    between atoms: _25  and  _26
REMARK   14  A    between atoms: _29  and  _31
REMARK   15  A    between atoms: _31  and  _32
REMARK   16  A    between atoms: _31  and  _34
REMARK   17  A    between atoms: _34  and  _35
REMARK   18  A    between atoms: _35  and  _36
REMARK   19  A    between atoms: _38  and  _40
REMARK   20  A    between atoms: _40  and  _41
REMARK   21  A    between atoms: _43  and  _45
REMARK   22  A    between atoms: _45  and  _46
REMARK   23  A    between atoms: _48  and  _50
REMARK   24  A    between atoms: _50  and  _51
REMARK   25  A    between atoms: _50  and  _53
REMARK   26  A    between atoms: _56  and  _58
REMARK   27  A    between atoms: _58  and  _59
REMARK   28  A    between atoms: _58  and  _61
REMARK   29  A    between atoms: _61  and  _62
REMARK   30  A    between atoms: _62  and  _63
REMARK   31  A    between atoms: _65  and  _67
REMARK   32  A    between atoms: _67  and  _68
REMARK   33  A    between atoms: _67  and  _70
REMARK   34  A    between atoms: _70  and  _71
REMARK   35  A    between atoms: _74  and  _76
REMARK   36  A    between atoms: _76  and  _77
REMARK   37  A    between atoms: _76  and  _79
REMARK   38  A    between atoms: _79  and  _80
REMARK   39  A    between atoms: _83  and  _85
REMARK   40  A    between atoms: _85  and  _86
REMARK   41  A    between atoms: _85  and  _88
REMARK   42  A    between atoms: _88  and  _89
REMARK   43  A    between atoms: _92  and  _94
REMARK   44  A    between atoms: _94  and  _95
REMARK   45  A    between atoms: _94  and  _97
REMARK   46  A    between atoms: _97  and  _98
REMARK   47  A    between atoms: _98  and  _99
REMARK   48  A    between atoms: _104  and  _106
REMARK   49  A    between atoms: _106  and  _107
REMARK   50  A    between atoms: _106  and  _109
REMARK   51  A    between atoms: _112  and  _114
REMARK   52  A    between atoms: _114  and  _115
REMARK   53  A    between atoms: _114  and  _117
REMARK   54  A    between atoms: _117  and  _118
REMARK   55  A    between atoms: _124  and  _126
REMARK   56  A    between atoms: _126  and  _127
REMARK   57  A    between atoms: _126  and  _129
REMARK   58  A    between atoms: _129  and  _130
REMARK   59  A    between atoms: _132  and  _134
REMARK   60  A    between atoms: _134  and  _135
REMARK   61  A    between atoms: _134  and  _137
REMARK   62  A    between atoms: _137  and  _138
REMARK   63  A    between atoms: _141  and  _143
REMARK   64  A    between atoms: _143  and  _144
REMARK   65  A    between atoms: _147  and  _149
REMARK   66  A    between atoms: _149  and  _150
REMARK   67  A    between atoms: _149  and  _152
REMARK   68  A    between atoms: _152  and  _153
REMARK   69  A    between atoms: _153  and  _154
REMARK   70  A    between atoms: _157  and  _159
REMARK   71  A    between atoms: _159  and  _160
REMARK   72  A    between atoms: _159  and  _162
REMARK   73  A    between atoms: _162  and  _163
REMARK   74  A    between atoms: _166  and  _168
REMARK   75  A    between atoms: _168  and  _169
REMARK   76  A    between atoms: _168  and  _171
REMARK   77  A    between atoms: _171  and  _172
REMARK   78  A    between atoms: _177  and  _179
REMARK   79  A    between atoms: _179  and  _180
REMARK   80  A    between atoms: _179  and  _182
REMARK   81  A    between atoms: _182  and  _183
REMARK   82  A    between atoms: _183  and  _184
REMARK   83  A    between atoms: _189  and  _191
REMARK   84  A    between atoms: _191  and  _192
REMARK   85  A    between atoms: _191  and  _194
REMARK   86  A    between atoms: _194  and  _195
REMARK   87  A    between atoms: _197  and  _199
REMARK   88  A    between atoms: _199  and  _200
REMARK   89  A    between atoms: _203  and  _205
REMARK   90  A    between atoms: _205  and  _206
REMARK   91  A    between atoms: _205  and  _208
REMARK   92  A    between atoms: _211  and  _213
REMARK   93  A    between atoms: _213  and  _214
REMARK   94  A    between atoms: _213  and  _216
REMARK   95  A    between atoms: _216  and  _217
REMARK   96  A    between atoms: _220  and  _222
REMARK   97  A    between atoms: _222  and  _223
REMARK   98  A    between atoms: _222  and  _225
REMARK   99  A    between atoms: _225  and  _226
REMARK  100  A    between atoms: _229  and  _231
REMARK  101  A    between atoms: _231  and  _232
REMARK  102  A    between atoms: _231  and  _234
REMARK  103  A    between atoms: _234  and  _235
REMARK  104  A    between atoms: _240  and  _242
REMARK  105  A    between atoms: _242  and  _243
REMARK  106  A    between atoms: _246  and  _248
REMARK  107  A    between atoms: _248  and  _249
REMARK  108  A    between atoms: _248  and  _251
REMARK  109  A    between atoms: _251  and  _252
REMARK  110  A    between atoms: _252  and  _253
REMARK  111  A    between atoms: _258  and  _260
REMARK  112  A    between atoms: _260  and  _261
REMARK  113  A    between atoms: _260  and  _263
REMARK  114  A    between atoms: _263  and  _264
REMARK  115  A    between atoms: _270  and  _272
REMARK  116  A    between atoms: _272  and  _273
REMARK  117  A    between atoms: _272  and  _275
REMARK  118  A    between atoms: _275  and  _276
REMARK  119  A    between atoms: _281  and  _283
REMARK  120  A    between atoms: _283  and  _284
REMARK  121  A    between atoms: _283  and  _286
REMARK  122  A    between atoms: _286  and  _287
REMARK  123  A    between atoms: _290  and  _292
REMARK  124  A    between atoms: _292  and  _293
REMARK  125  A    between atoms: _292  and  _295
REMARK  126  A    between atoms: _295  and  _296
REMARK  127  A    between atoms: _299  and  _301
REMARK  128  A    between atoms: _301  and  _302
REMARK  129  A    between atoms: _304  and  _306
REMARK  130  A    between atoms: _306  and  _307
REMARK  131  A    between atoms: _306  and  _309
REMARK  132  A    between atoms: _309  and  _310
REMARK  133  A    between atoms: _313  and  _315
REMARK  134  A    between atoms: _315  and  _316
REMARK  135  A    between atoms: _315  and  _318
REMARK  136  A    between atoms: _318  and  _319
REMARK  137  A    between atoms: _319  and  _320
REMARK  138  A    between atoms: _320  and  _321
REMARK  139  A    between atoms: _330  and  _332
REMARK  140  A    between atoms: _332  and  _333
REMARK  141  A    between atoms: _335  and  _337
REMARK  142  A    between atoms: _337  and  _338
REMARK  143  A    between atoms: _337  and  _340
REMARK  144  A    between atoms: _340  and  _341
REMARK  145  A    between atoms: _341  and  _342
REMARK  146  A    between atoms: _345  and  _346
REMARK  147  A    between atoms: _351  and  _353
REMARK  148  A    between atoms: _353  and  _354
REMARK  149  A    between atoms: _353  and  _356
REMARK  150  A    between atoms: _356  and  _357
REMARK  151  A    between atoms: _357  and  _358
REMARK  152  A    between atoms: _363  and  _365
REMARK  153  A    between atoms: _365  and  _366
REMARK  154  A    between atoms: _365  and  _368
REMARK  155  A    between atoms: _368  and  _369
REMARK  156  A    between atoms: _372  and  _374
REMARK  157  A    between atoms: _374  and  _375
REMARK  158  A    between atoms: _374  and  _377
REMARK  159  A    between atoms: _377  and  _378
REMARK  160  A    between atoms: _378  and  _379
REMARK  161  A    between atoms: _382  and  _384
REMARK  162  A    between atoms: _384  and  _385
REMARK  163  A    between atoms: _384  and  _387
REMARK  164  A    between atoms: _390  and  _392
REMARK  165  A    between atoms: _392  and  _393
REMARK  166  A    between atoms: _392  and  _395
REMARK  167  A    between atoms: _395  and  _396
REMARK  168  A    between atoms: _398  and  _400
REMARK  169  A    between atoms: _400  and  _401
REMARK  170  A    between atoms: _404  and  _406
REMARK  171  A    between atoms: _406  and  _407
REMARK  172  A    between atoms: _406  and  _409
REMARK  173  A    between atoms: _410  and  _411
REMARK  174  A    between atoms: _412  and  _413
REMARK  175  A    between atoms: _417  and  _419
REMARK  176  A    between atoms: _419  and  _420
REMARK  177  A    between atoms: _419  and  _422
REMARK  178  A    between atoms: _422  and  _423
REMARK  179  A    between atoms: _428  and  _430
REMARK  180  A    between atoms: _430  and  _431
REMARK  181  A    between atoms: _430  and  _433
REMARK  182  A    between atoms: _433  and  _434
REMARK  183  A    between atoms: _437  and  _439
REMARK  184  A    between atoms: _439  and  _440
REMARK  185  A    between atoms: _439  and  _442
REMARK  186  A    between atoms: _442  and  _443
REMARK  187  A    between atoms: _448  and  _450
REMARK  188  A    between atoms: _450  and  _451
REMARK  189  A    between atoms: _450  and  _453
REMARK  190  A    between atoms: _453  and  _454
REMARK  191  A    between atoms: _454  and  _455
REMARK  192  A    between atoms: _455  and  _456
REMARK  193  A    between atoms: _465  and  _467
REMARK  194  A    between atoms: _467  and  _468
REMARK  195  A    between atoms: _467  and  _470
REMARK  196  A    between atoms: _470  and  _471
REMARK  197  A    between atoms: _471  and  _472
REMARK  198  A    between atoms: _475  and  _477
REMARK  199  A    between atoms: _477  and  _478
REMARK  200  A    between atoms: _477  and  _480
REMARK  201  A    between atoms: _483  and  _485
REMARK  202  A    between atoms: _485  and  _486
REMARK  203  A    between atoms: _485  and  _488
REMARK  204  A    between atoms: _488  and  _489
REMARK  205  A    between atoms: _489  and  _490
REMARK  206  A    between atoms: _495  and  _497
REMARK  207  A    between atoms: _497  and  _498
REMARK  208  A    between atoms: _497  and  _500
REMARK  209  A    between atoms: _500  and  _501
REMARK  210  A    between atoms: _504  and  _506
REMARK  211  A    between atoms: _506  and  _507
REMARK  212  A    between atoms: _506  and  _509
REMARK  213  A    between atoms: _509  and  _510
REMARK  214  A    between atoms: _515  and  _517
REMARK  215  A    between atoms: _517  and  _518
REMARK  216  A    between atoms: _517  and  _520
REMARK  217  A    between atoms: _520  and  _521
REMARK  218  A    between atoms: _521  and  _522
REMARK  219  A    between atoms: _527  and  _529
REMARK  220  A    between atoms: _529  and  _530
REMARK  221  A    between atoms: _532  and  _534
REMARK  222  A    between atoms: _534  and  _535
REMARK  223  A    between atoms: _534  and  _537
REMARK  224  A    between atoms: _537  and  _538
REMARK  225  A    between atoms: _543  and  _545
REMARK  226  A    between atoms: _545  and  _546
REMARK  227  A    between atoms: _545  and  _548
REMARK  228  A    between atoms: _548  and  _549
REMARK  229  A    between atoms: _552  and  _554
REMARK  230  A    between atoms: _554  and  _555
REMARK  231  A    between atoms: _554  and  _557
REMARK  232  A    between atoms: _557  and  _558
REMARK  233  A    between atoms: _560  and  _562
REMARK  234  A    between atoms: _562  and  _563
REMARK  235  A    between atoms: _562  and  _565
REMARK  236  A    between atoms: _565  and  _566
REMARK  237  A    between atoms: _566  and  _567
REMARK                            x       y       z     vdW  Elec       q    Type
REMARK                         _______ _______ _______ _____ _____    ______ ____
ROOT
ATOM      1  NE  ARG A   1      44.329  79.339  43.236  0.00  0.00    -0.265 N 
ATOM      2  CZ  ARG A   1      45.196  80.049  43.953  0.00  0.00    +0.342 C 
ATOM      3  NH2 ARG A   1      45.548  79.639  45.196  0.00  0.00    -0.292 N 
ATOM      4 HH21 ARG A   1      46.226  80.196  45.755  0.00  0.00    +0.255 HD
ATOM      5 HH22 ARG A   1      45.140  78.768  45.591  0.00  0.00    +0.255 HD
ATOM      6  NH1 ARG A   1      45.734  81.144  43.414  0.00  0.00    -0.292 N 
ATOM      7 HH11 ARG A   1      46.414  81.712  43.959  0.00  0.00    +0.255 HD
ATOM      8 HH12 ARG A   1      45.474  81.430  42.449  0.00  0.00    +0.255 HD
ATOM      9  HE  ARG A   1      44.088  79.683  42.285  0.00  0.00    +0.259 HD
ENDROOT
BRANCH   1  10
ATOM     10  CD  ARG A   1      43.694  78.110  43.696  0.00  0.00    +0.174 C 
BRANCH  10  11
ATOM     11  CG  ARG A   1      42.723  77.539  42.668  0.00  0.00    +0.045 C 
BRANCH  11  12
ATOM     12  CB  ARG A   1      41.367  78.159  42.914  0.00  0.00    +0.029 C 
BRANCH  12  13
ATOM     13  CA  ARG A   1      40.309  77.757  41.879  0.00  0.00    +0.133 C 
BRANCH  13  14
ATOM     14  N   ARG A   1      40.217  76.298  41.800  0.00  0.00    -0.239 NA
ATOM     15  H   ARG A   1      40.756  75.713  42.470  0.00  0.00    +0.142 HD
ENDBRANCH  13  14
BRANCH  13  16
ATOM     16  C   ARG A   1      40.678  78.413  40.557  0.00  0.00    +0.224 C 
ATOM     17  O   ARG A   1      41.477  77.870  39.764  0.00  0.00    -0.287 OA
ENDBRANCH  13  16
ENDBRANCH  12  13
ENDBRANCH  11  12
ENDBRANCH  10  11
ENDBRANCH   1  10
TORSDOF 6
REMARK  Name = ../refined-set-2016/4ezz/4ezz_pocket.pdb
REMARK  237 active torsions:
REMARK  status: ('A' for Active; 'I' for Inactive)
REMARK    1  A    between atoms: _1  and  _3
REMARK    2  A    between atoms: _3  and  _4
REMARK    3  A    between atoms: _3  and  _6
REMARK    4  A    between atoms: _6  and  _7
REMARK    5  A    between atoms: _10  and  _12
REMARK    6  A    between atoms: _12  and  _13
REMARK    7  A    between atoms: _12  and  _15
REMARK    8  A    between atoms: _15  and  _16
REMARK    9  A    between atoms: _16  and  _17
REMARK   10  A    between atoms: _20  and  _22
REMARK   11  A    between atoms: _22  and  _23
REMARK   12  A    between atoms: _22  and  _25
REMARK   13  A    between atoms: _25  and  _26
REMARK   14  A    between atoms: _29  and  _31
REMARK   15  A    between atoms: _31  and  _32
REMARK   16  A    between atoms: _31  and  _34
REMARK   17  A    between atoms: _34  and  _35
REMARK   18  A    between atoms: _35  and  _36
REMARK   19  A    between atoms: _38  and  _40
REMARK   20  A    between atoms: _40  and  _41
REMARK   21  A    between atoms: _43  and  _45
REMARK   22  A    between atoms: _45  and  _46
REMARK   23  A    between atoms: _48  and  _50
REMARK   24  A    between atoms: _50  and  _51
REMARK   25  A    between atoms: _50  and  _53
REMARK   26  A    between atoms: _56  and  _58
REMARK   27  A    between atoms: _58  and  _59
REMARK   28  A    between atoms: _58  and  _61
REMARK   29  A    between atoms: _61  and  _62
REMARK   30  A    between atoms: _62  and  _63
REMARK   31  A    between atoms: _65  and  _67
REMARK   32  A    between atoms: _67  and  _68
REMARK   33  A    between atoms: _67  and  _70
REMARK   34  A    between atoms: _70  and  _71
REMARK   35  A    between atoms: _74  and  _76
REMARK   36  A    between atoms: _76  and  _77
REMARK   37  A    between atoms: _76  and  _79
REMARK   38  A    between atoms: _79  and  _80
REMARK   39  A    between atoms: _83  and  _85
REMARK   40  A    between atoms: _85  and  _86
REMARK   41  A    between atoms: _85  and  _88
REMARK   42  A    between atoms: _88  and  _89
REMARK   43  A    between atoms: _92  and  _94
REMARK   44  A    between atoms: _94  and  _95
REMARK   45  A    between atoms: _94  and  _97
REMARK   46  A    between atoms: _97  and  _98
REMARK   47  A    between atoms: _98  and  _99
REMARK   48  A    between atoms: _104  and  _106
REMARK   49  A    between atoms: _106  and  _107
REMARK   50  A    between atoms: _106  and  _109
REMARK   51  A    between atoms: _112  and  _114
REMARK   52  A    between atoms: _114  and  _115
REMARK   53  A    between atoms: _114  and  _117
REMARK   54  A    between atoms: _117  and  _118
REMARK   55  A    between atoms: _124  and  _126
REMARK   56  A    between atoms: _126  and  _127
REMARK   57  A    between atoms: _126  and  _129
REMARK   58  A    between atoms: _129  and  _130
REMARK   59  A    between atoms: _132  and  _134
REMARK   60  A    between atoms: _134  and  _135
REMARK   61  A    between atoms: _134  and  _137
REMARK   62  A    between atoms: _137  and  _138
REMARK   63  A    between atoms: _141  and  _143
REMARK   64  A    between atoms: _143  and  _144
REMARK   65  A    between atoms: _147  and  _149
REMARK   66  A    between atoms: _149  and  _150
REMARK   67  A    between atoms: _149  and  _152
REMARK   68  A    between atoms: _152  and  _153
REMARK   69  A    between atoms: _153  and  _154
REMARK   70  A    between atoms: _157  and  _159
REMARK   71  A    between atoms: _159  and  _160
REMARK   72  A    between atoms: _159  and  _162
REMARK   73  A    between atoms: _162  and  _163
REMARK   74  A    between atoms: _166  and  _168
REMARK   75  A    between atoms: _168  and  _169
REMARK   76  A    between atoms: _168  and  _171
REMARK   77  A    between atoms: _171  and  _172
REMARK   78  A    between atoms: _177  and  _179
REMARK   79  A    between atoms: _179  and  _180
REMARK   80  A    between atoms: _179  and  _182
REMARK   81  A    between atoms: _182  and  _183
REMARK   82  A    between atoms: _183  and  _184
REMARK   83  A    between atoms: _189  and  _191
REMARK   84  A    between atoms: _191  and  _192
REMARK   85  A    between atoms: _191  and  _194
REMARK   86  A    between atoms: _194  and  _195
REMARK   87  A    between atoms: _197  and  _199
REMARK   88  A    between atoms: _199  and  _200
REMARK   89  A    between atoms: _203  and  _205
REMARK   90  A    between atoms: _205  and  _206
REMARK   91  A    between atoms: _205  and  _208
REMARK   92  A    between atoms: _211  and  _213
REMARK   93  A    between atoms: _213  and  _214
REMARK   94  A    between atoms: _213  and  _216
REMARK   95  A    between atoms: _216  and  _217
REMARK   96  A    between atoms: _220  and  _222
REMARK   97  A    between atoms: _222  and  _223
REMARK   98  A    between atoms: _222  and  _225
REMARK   99  A    between atoms: _225  and  _226
REMARK  100  A    between atoms: _229  and  _231
REMARK  101  A    between atoms: _231  and  _232
REMARK  102  A    between atoms: _231  and  _234
REMARK  103  A    between atoms: _234  and  _235
REMARK  104  A    between atoms: _240  and  _242
REMARK  105  A    between atoms: _242  and  _243
REMARK  106  A    between atoms: _246  and  _248
REMARK  107  A    between atoms: _248  and  _249
REMARK  108  A    between atoms: _248  and  _251
REMARK  109  A    between atoms: _251  and  _252
REMARK  110  A    between atoms: _252  and  _253
REMARK  111  A    between atoms: _258  and  _260
REMARK  112  A    between atoms: _260  and  _261
REMARK  113  A    between atoms: _260  and  _263
REMARK  114  A    between atoms: _263  and  _264
REMARK  115  A    between atoms: _270  and  _272
REMARK  116  A    between atoms: _272  and  _273
REMARK  117  A    between atoms: _272  and  _275
REMARK  118  A    between atoms: _275  and  _276
REMARK  119  A    between atoms: _281  and  _283
REMARK  120  A    between atoms: _283  and  _284
REMARK  121  A    between atoms: _283  and  _286
REMARK  122  A    between atoms: _286  and  _287
REMARK  123  A    between atoms: _290  and  _292
REMARK  124  A    between atoms: _292  and  _293
REMARK  125  A    between atoms: _292  and  _295
REMARK  126  A    between atoms: _295  and  _296
REMARK  127  A    between atoms: _299  and  _301
REMARK  128  A    between atoms: _301  and  _302
REMARK  129  A    between atoms: _304  and  _306
REMARK  130  A    between atoms: _306  and  _307
REMARK  131  A    between atoms: _306  and  _309
REMARK  132  A    between atoms: _309  and  _310
REMARK  133  A    between atoms: _313  and  _315
REMARK  134  A    between atoms: _315  and  _316
REMARK  135  A    between atoms: _315  and  _318
REMARK  136  A    between atoms: _318  and  _319
REMARK  137  A    between atoms: _319  and  _320
REMARK  138  A    between atoms: _320  and  _321
REMARK  139  A    between atoms: _330  and  _332
REMARK  140  A    between atoms: _332  and  _333
REMARK  141  A    between atoms: _335  and  _337
REMARK  142  A    between atoms: _337  and  _338
REMARK  143  A    between atoms: _337  and  _340
REMARK  144  A    between atoms: _340  and  _341
REMARK  145  A    between atoms: _341  and  _342
REMARK  146  A    between atoms: _345  and  _346
REMARK  147  A    between atoms: _351  and  _353
REMARK  148  A    between atoms: _353  and  _354
REMARK  149  A    between atoms: _353  and  _356
REMARK  150  A    between atoms: _356  and  _357
REMARK  151  A    between atoms: _357  and  _358
REMARK  152  A    between atoms: _363  and  _365
REMARK  153  A    between atoms: _365  and  _366
REMARK  154  A    between atoms: _365  and  _368
REMARK  155  A    between atoms: _368  and  _369
REMARK  156  A    between atoms: _372  and  _374
REMARK  157  A    between atoms: _374  and  _375
REMARK  158  A    between atoms: _374  and  _377
REMARK  159  A    between atoms: _377  and  _378
REMARK  160  A    between atoms: _378  and  _379
REMARK  161  A    between atoms: _382  and  _384
REMARK  162  A    between atoms: _384  and  _385
REMARK  163  A    between atoms: _384  and  _387
REMARK  164  A    between atoms: _390  and  _392
REMARK  165  A    between atoms: _392  and  _393
REMARK  166  A    between atoms: _392  and  _395
REMARK  167  A    between atoms: _395  and  _396
REMARK  168  A    between atoms: _398  and  _400
REMARK  169  A    between atoms: _400  and  _401
REMARK  170  A    between atoms: _404  and  _406
REMARK  171  A    between atoms: _406  and  _407
REMARK  172  A    between atoms: _406  and  _409
REMARK  173  A    between atoms: _410  and  _411
REMARK  174  A    between atoms: _412  and  _413
REMARK  175  A    between atoms: _417  and  _419
REMARK  176  A    between atoms: _419  and  _420
REMARK  177  A    between atoms: _419  and  _422
REMARK  178  A    between atoms: _422  and  _423
REMARK  179  A    between atoms: _428  and  _430
REMARK  180  A    between atoms: _430  and  _431
REMARK  181  A    between atoms: _430  and  _433
REMARK  182  A    between atoms: _433  and  _434
REMARK  183  A    between atoms: _437  and  _439
REMARK  184  A    between atoms: _439  and  _440
REMARK  185  A    between atoms: _439  and  _442
REMARK  186  A    between atoms: _442  and  _443
REMARK  187  A    between atoms: _448  and  _450
REMARK  188  A    between atoms: _450  and  _451
REMARK  189  A    between atoms: _450  and  _453
REMARK  190  A    between atoms: _453  and  _454
REMARK  191  A    between atoms: _454  and  _455
REMARK  192  A    between atoms: _455  and  _456
REMARK  193  A    between atoms: _465  and  _467
REMARK  194  A    between atoms: _467  and  _468
REMARK  195  A    between atoms: _467  and  _470
REMARK  196  A    between atoms: _470  and  _471
REMARK  197  A    between atoms: _471  and  _472
REMARK  198  A    between atoms: _475  and  _477
REMARK  199  A    between atoms: _477  and  _478
REMARK  200  A    between atoms: _477  and  _480
REMARK  201  A    between atoms: _483  and  _485
REMARK  202  A    between atoms: _485  and  _486
REMARK  203  A    between atoms: _485  and  _488
REMARK  204  A    between atoms: _488  and  _489
REMARK  205  A    between atoms: _489  and  _490
REMARK  206  A    between atoms: _495  and  _497
REMARK  207  A    between atoms: _497  and  _498
REMARK  208  A    between atoms: _497  and  _500
REMARK  209  A    between atoms: _500  and  _501
REMARK  210  A    between atoms: _504  and  _506
REMARK  211  A    between atoms: _506  and  _507
REMARK  212  A    between atoms: _506  and  _509
REMARK  213  A    between atoms: _509  and  _510
REMARK  214  A    between atoms: _515  and  _517
REMARK  215  A    between atoms: _517  and  _518
REMARK  216  A    between atoms: _517  and  _520
REMARK  217  A    between atoms: _520  and  _521
REMARK  218  A    between atoms: _521  and  _522
REMARK  219  A    between atoms: _527  and  _529
REMARK  220  A    between atoms: _529  and  _530
REMARK  221  A    between atoms: _532  and  _534
REMARK  222  A    between atoms: _534  and  _535
REMARK  223  A    between atoms: _534  and  _537
REMARK  224  A    between atoms: _537  and  _538
REMARK  225  A    between atoms: _543  and  _545
REMARK  226  A    between atoms: _545  and  _546
REMARK  227  A    between atoms: _545  and  _548
REMARK  228  A    between atoms: _548  and  _549
REMARK  229  A    between atoms: _552  and  _554
REMARK  230  A    between atoms: _554  and  _555
REMARK  231  A    between atoms: _554  and  _557
REMARK  232  A    between atoms: _557  and  _558
REMARK  233  A    between atoms: _560  and  _562
REMARK  234  A    between atoms: _562  and  _563
REMARK  235  A    between atoms: _562  and  _565
REMARK  236  A    between atoms: _565  and  _566
REMARK  237  A    between atoms: _566  and  _567
REMARK                            x       y       z     vdW  Elec       q    Type
REMARK                         _______ _______ _______ _____ _____    ______ ____
ROOT
ATOM      1  CA  GLU A   1      50.246  96.794  46.077  0.00  0.00    +0.134 C 
ENDROOT
BRANCH   1   2
ATOM      2  N   GLU A   1      50.713  97.460  47.274  0.00  0.00    -0.239 NA
ATOM      3  H   GLU A   1      51.032  98.449  47.235  0.00  0.00    +0.142 HD
ENDBRANCH   1   2
BRANCH   1   4
ATOM      4  C   GLU A   1      51.221  95.683  45.647  0.00  0.00    +0.224 C 
ATOM      5  O   GLU A   1      50.791  94.568  45.269  0.00  0.00    -0.287 OA
ENDBRANCH   1   4
BRANCH   1   6
ATOM      6  CB  GLU A   1      50.103  97.815  44.986  0.00  0.00    +0.037 C 
BRANCH   6   7
ATOM      7  CG  GLU A   1      49.376  97.300  43.780  0.00  0.00    +0.116 C 
BRANCH   7   8
ATOM      8  CD  GLU A   1      48.917  98.443  42.890  0.00  0.00    +0.365 C 
ATOM      9  OE2 GLU A   1      49.664  99.449  42.746  0.00  0.00    -0.246 OA
ATOM     10  OE1 GLU A   1      47.796  98.343  42.362  0.00  0.00    -0.246 OA
ENDBRANCH   7   8
ENDBRANCH   6   7
ENDBRANCH   1   6
TORSDOF 5
REMARK  Name = ../refined-set-2016/4ezz/4ezz_pocket.pdb
REMARK  237 active torsions:
REMARK  status: ('A' for Active; 'I' for Inactive)
REMARK    1  A    between atoms: _1  and  _3
REMARK    2  A    between atoms: _3  and  _4
REMARK    3  A    between atoms: _3  and  _6
REMARK    4  A    between atoms: _6  and  _7
REMARK    5  A    between atoms: _10  and  _12
REMARK    6  A    between atoms: _12  and  _13
REMARK    7  A    between atoms: _12  and  _15
REMARK    8  A    between atoms: _15  and  _16
REMARK    9  A    between atoms: _16  and  _17
REMARK   10  A    between atoms: _20  and  _22
REMARK   11  A    between atoms: _22  and  _23
REMARK   12  A    between atoms: _22  and  _25
REMARK   13  A    between atoms: _25  and  _26
REMARK   14  A    between atoms: _29  and  _31
REMARK   15  A    between atoms: _31  and  _32
REMARK   16  A    between atoms: _31  and  _34
REMARK   17  A    between atoms: _34  and  _35
REMARK   18  A    between atoms: _35  and  _36
REMARK   19  A    between atoms: _38  and  _40
REMARK   20  A    between atoms: _40  and  _41
REMARK   21  A    between atoms: _43  and  _45
REMARK   22  A    between atoms: _45  and  _46
REMARK   23  A    between atoms: _48  and  _50
REMARK   24  A    between atoms: _50  and  _51
REMARK   25  A    between atoms: _50  and  _53
REMARK   26  A    between atoms: _56  and  _58
REMARK   27  A    between atoms: _58  and  _59
REMARK   28  A    between atoms: _58  and  _61
REMARK   29  A    between atoms: _61  and  _62
REMARK   30  A    between atoms: _62  and  _63
REMARK   31  A    between atoms: _65  and  _67
REMARK   32  A    between atoms: _67  and  _68
REMARK   33  A    between atoms: _67  and  _70
REMARK   34  A    between atoms: _70  and  _71
REMARK   35  A    between atoms: _74  and  _76
REMARK   36  A    between atoms: _76  and  _77
REMARK   37  A    between atoms: _76  and  _79
REMARK   38  A    between atoms: _79  and  _80
REMARK   39  A    between atoms: _83  and  _85
REMARK   40  A    between atoms: _85  and  _86
REMARK   41  A    between atoms: _85  and  _88
REMARK   42  A    between atoms: _88  and  _89
REMARK   43  A    between atoms: _92  and  _94
REMARK   44  A    between atoms: _94  and  _95
REMARK   45  A    between atoms: _94  and  _97
REMARK   46  A    between atoms: _97  and  _98
REMARK   47  A    between atoms: _98  and  _99
REMARK   48  A    between atoms: _104  and  _106
REMARK   49  A    between atoms: _106  and  _107
REMARK   50  A    between atoms: _106  and  _109
REMARK   51  A    between atoms: _112  and  _114
REMARK   52  A    between atoms: _114  and  _115
REMARK   53  A    between atoms: _114  and  _117
REMARK   54  A    between atoms: _117  and  _118
REMARK   55  A    between atoms: _124  and  _126
REMARK   56  A    between atoms: _126  and  _127
REMARK   57  A    between atoms: _126  and  _129
REMARK   58  A    between atoms: _129  and  _130
REMARK   59  A    between atoms: _132  and  _134
REMARK   60  A    between atoms: _134  and  _135
REMARK   61  A    between atoms: _134  and  _137
REMARK   62  A    between atoms: _137  and  _138
REMARK   63  A    between atoms: _141  and  _143
REMARK   64  A    between atoms: _143  and  _144
REMARK   65  A    between atoms: _147  and  _149
REMARK   66  A    between atoms: _149  and  _150
REMARK   67  A    between atoms: _149  and  _152
REMARK   68  A    between atoms: _152  and  _153
REMARK   69  A    between atoms: _153  and  _154
REMARK   70  A    between atoms: _157  and  _159
REMARK   71  A    between atoms: _159  and  _160
REMARK   72  A    between atoms: _159  and  _162
REMARK   73  A    between atoms: _162  and  _163
REMARK   74  A    between atoms: _166  and  _168
REMARK   75  A    between atoms: _168  and  _169
REMARK   76  A    between atoms: _168  and  _171
REMARK   77  A    between atoms: _171  and  _172
REMARK   78  A    between atoms: _177  and  _179
REMARK   79  A    between atoms: _179  and  _180
REMARK   80  A    between atoms: _179  and  _182
REMARK   81  A    between atoms: _182  and  _183
REMARK   82  A    between atoms: _183  and  _184
REMARK   83  A    between atoms: _189  and  _191
REMARK   84  A    between atoms: _191  and  _192
REMARK   85  A    between atoms: _191  and  _194
REMARK   86  A    between atoms: _194  and  _195
REMARK   87  A    between atoms: _197  and  _199
REMARK   88  A    between atoms: _199  and  _200
REMARK   89  A    between atoms: _203  and  _205
REMARK   90  A    between atoms: _205  and  _206
REMARK   91  A    between atoms: _205  and  _208
REMARK   92  A    between atoms: _211  and  _213
REMARK   93  A    between atoms: _213  and  _214
REMARK   94  A    between atoms: _213  and  _216
REMARK   95  A    between atoms: _216  and  _217
REMARK   96  A    between atoms: _220  and  _222
REMARK   97  A    between atoms: _222  and  _223
REMARK   98  A    between atoms: _222  and  _225
REMARK   99  A    between atoms: _225  and  _226
REMARK  100  A    between atoms: _229  and  _231
REMARK  101  A    between atoms: _231  and  _232
REMARK  102  A    between atoms: _231  and  _234
REMARK  103  A    between atoms: _234  and  _235
REMARK  104  A    between atoms: _240  and  _242
REMARK  105  A    between atoms: _242  and  _243
REMARK  106  A    between atoms: _246  and  _248
REMARK  107  A    between atoms: _248  and  _249
REMARK  108  A    between atoms: _248  and  _251
REMARK  109  A    between atoms: _251  and  _252
REMARK  110  A    between atoms: _252  and  _253
REMARK  111  A    between atoms: _258  and  _260
REMARK  112  A    between atoms: _260  and  _261
REMARK  113  A    between atoms: _260  and  _263
REMARK  114  A    between atoms: _263  and  _264
REMARK  115  A    between atoms: _270  and  _272
REMARK  116  A    between atoms: _272  and  _273
REMARK  117  A    between atoms: _272  and  _275
REMARK  118  A    between atoms: _275  and  _276
REMARK  119  A    between atoms: _281  and  _283
REMARK  120  A    between atoms: _283  and  _284
REMARK  121  A    between atoms: _283  and  _286
REMARK  122  A    between atoms: _286  and  _287
REMARK  123  A    between atoms: _290  and  _292
REMARK  124  A    between atoms: _292  and  _293
REMARK  125  A    between atoms: _292  and  _295
REMARK  126  A    between atoms: _295  and  _296
REMARK  127  A    between atoms: _299  and  _301
REMARK  128  A    between atoms: _301  and  _302
REMARK  129  A    between atoms: _304  and  _306
REMARK  130  A    between atoms: _306  and  _307
REMARK  131  A    between atoms: _306  and  _309
REMARK  132  A    between atoms: _309  and  _310
REMARK  133  A    between atoms: _313  and  _315
REMARK  134  A    between atoms: _315  and  _316
REMARK  135  A    between atoms: _315  and  _318
REMARK  136  A    between atoms: _318  and  _319
REMARK  137  A    between atoms: _319  and  _320
REMARK  138  A    between atoms: _320  and  _321
REMARK  139  A    between atoms: _330  and  _332
REMARK  140  A    between atoms: _332  and  _333
REMARK  141  A    between atoms: _335  and  _337
REMARK  142  A    between atoms: _337  and  _338
REMARK  143  A    between atoms: _337  and  _340
REMARK  144  A    between atoms: _340  and  _341
REMARK  145  A    between atoms: _341  and  _342
REMARK  146  A    between atoms: _345  and  _346
REMARK  147  A    between atoms: _351  and  _353
REMARK  148  A    between atoms: _353  and  _354
REMARK  149  A    between atoms: _353  and  _356
REMARK  150  A    between atoms: _356  and  _357
REMARK  151  A    between atoms: _357  and  _358
REMARK  152  A    between atoms: _363  and  _365
REMARK  153  A    between atoms: _365  and  _366
REMARK  154  A    between atoms: _365  and  _368
REMARK  155  A    between atoms: _368  and  _369
REMARK  156  A    between atoms: _372  and  _374
REMARK  157  A    between atoms: _374  and  _375
REMARK  158  A    between atoms: _374  and  _377
REMARK  159  A    between atoms: _377  and  _378
REMARK  160  A    between atoms: _378  and  _379
REMARK  161  A    between atoms: _382  and  _384
REMARK  162  A    between atoms: _384  and  _385
REMARK  163  A    between atoms: _384  and  _387
REMARK  164  A    between atoms: _390  and  _392
REMARK  165  A    between atoms: _392  and  _393
REMARK  166  A    between atoms: _392  and  _395
REMARK  167  A    between atoms: _395  and  _396
REMARK  168  A    between atoms: _398  and  _400
REMARK  169  A    between atoms: _400  and  _401
REMARK  170  A    between atoms: _404  and  _406
REMARK  171  A    between atoms: _406  and  _407
REMARK  172  A    between atoms: _406  and  _409
REMARK  173  A    between atoms: _410  and  _411
REMARK  174  A    between atoms: _412  and  _413
REMARK  175  A    between atoms: _417  and  _419
REMARK  176  A    between atoms: _419  and  _420
REMARK  177  A    between atoms: _419  and  _422
REMARK  178  A    between atoms: _422  and  _423
REMARK  179  A    between atoms: _428  and  _430
REMARK  180  A    between atoms: _430  and  _431
REMARK  181  A    between atoms: _430  and  _433
REMARK  182  A    between atoms: _433  and  _434
REMARK  183  A    between atoms: _437  and  _439
REMARK  184  A    between atoms: _439  and  _440
REMARK  185  A    between atoms: _439  and  _442
REMARK  186  A    between atoms: _442  and  _443
REMARK  187  A    between atoms: _448  and  _450
REMARK  188  A    between atoms: _450  and  _451
REMARK  189  A    between atoms: _450  and  _453
REMARK  190  A    between atoms: _453  and  _454
REMARK  191  A    between atoms: _454  and  _455
REMARK  192  A    between atoms: _455  and  _456
REMARK  193  A    between atoms: _465  and  _467
REMARK  194  A    between atoms: _467  and  _468
REMARK  195  A    between atoms: _467  and  _470
REMARK  196  A    between atoms: _470  and  _471
REMARK  197  A    between atoms: _471  and  _472
REMARK  198  A    between atoms: _475  and  _477
REMARK  199  A    between atoms: _477  and  _478
REMARK  200  A    between atoms: _477  and  _480
REMARK  201  A    between atoms: _483  and  _485
REMARK  202  A    between atoms: _485  and  _486
REMARK  203  A    between atoms: _485  and  _488
REMARK  204  A    between atoms: _488  and  _489
REMARK  205  A    between atoms: _489  and  _490
REMARK  206  A    between atoms: _495  and  _497
REMARK  207  A    between atoms: _497  and  _498
REMARK  208  A    between atoms: _497  and  _500
REMARK  209  A    between atoms: _500  and  _501
REMARK  210  A    between atoms: _504  and  _506
REMARK  211  A    between atoms: _506  and  _507
REMARK  212  A    between atoms: _506  and  _509
REMARK  213  A    between atoms: _509  and  _510
REMARK  214  A    between atoms: _515  and  _517
REMARK  215  A    between atoms: _517  and  _518
REMARK  216  A    between atoms: _517  and  _520
REMARK  217  A    between atoms: _520  and  _521
REMARK  218  A    between atoms: _521  and  _522
REMARK  219  A    between atoms: _527  and  _529
REMARK  220  A    between atoms: _529  and  _530
REMARK  221  A    between atoms: _532  and  _534
REMARK  222  A    between atoms: _534  and  _535
REMARK  223  A    between atoms: _534  and  _537
REMARK  224  A    between atoms: _537  and  _538
REMARK  225  A    between atoms: _543  and  _545
REMARK  226  A    between atoms: _545  and  _546
REMARK  227  A    between atoms: _545  and  _548
REMARK  228  A    between atoms: _548  and  _549
REMARK  229  A    between atoms: _552  and  _554
REMARK  230  A    between atoms: _554  and  _555
REMARK  231  A    between atoms: _554  and  _557
REMARK  232  A    between atoms: _557  and  _558
REMARK  233  A    between atoms: _560  and  _562
REMARK  234  A    between atoms: _562  and  _563
REMARK  235  A    between atoms: _562  and  _565
REMARK  236  A    between atoms: _565  and  _566
REMARK  237  A    between atoms: _566  and  _567
REMARK                            x       y       z     vdW  Elec       q    Type
REMARK                         _______ _______ _______ _____ _____    ______ ____
ROOT
ATOM      1  CA  GLN A   2      50.886  90.833  44.318  0.00  0.00    +0.149 C 
ENDROOT
BRANCH   1   4
ATOM      2  C   VAL A   1      49.946  90.958  46.554  0.00  0.00    +0.238 C 
ATOM      3  O   VAL A   1      49.556  89.780  46.555  0.00  0.00    -0.274 OA
ATOM      4  N   GLN A   2      50.612  91.513  45.553  0.00  0.00    -0.297 N 
ATOM      5  H   GLN A   2      50.953  92.489  45.667  0.00  0.00    +0.150 HD
BRANCH   2   6
ATOM      6  CA  VAL A   1      49.765  91.855  47.790  0.00  0.00    +0.145 C 
BRANCH   6   7
ATOM      7  CB  VAL A   1      48.541  92.783  47.628  0.00  0.00    +0.025 C 
ATOM      8  CG2 VAL A   1      47.989  93.094  49.008  0.00  0.00    +0.002 C 
ATOM      9  CG1 VAL A   1      47.458  92.176  46.728  0.00  0.00    +0.002 C 
ENDBRANCH   6   7
BRANCH   6  10
ATOM     10  N   VAL A   1      50.976  92.646  48.035  0.00  0.00    -0.238 NA
ATOM     11  H   VAL A   1      50.936  93.677  47.902  0.00  0.00    +0.142 HD
ENDBRANCH   6  10
ENDBRANCH   2   6
ENDBRANCH   1   4
BRANCH   1  12
ATOM     12  C   GLN A   2      51.946  89.755  44.572  0.00  0.00    +0.241 C 
ATOM     13  N   THR A   3      52.983  90.013  45.371  0.00  0.00    -0.296 N 
ATOM     14  H   THR A   3      53.172  90.981  45.700  0.00  0.00    +0.150 HD
ATOM     15  O   GLN A   2      51.787  88.652  44.106  0.00  0.00    -0.273 OA
BRANCH  13  16
ATOM     16  CA  THR A   3      53.863  88.884  45.781  0.00  0.00    +0.164 C 
BRANCH  16  17
ATOM     17  CB  THR A   3      55.004  89.303  46.720  0.00  0.00    +0.136 C 
ATOM     18  CG2 THR A   3      56.035  88.175  46.817  0.00  0.00    +0.034 C 
BRANCH  17  19
ATOM     19  OG1 THR A   3      55.647  90.439  46.183  0.00  0.00    -0.382 OA
ATOM     20  HG1 THR A   3      54.994  91.178  46.100  0.00  0.00    +0.210 HD
ENDBRANCH  17  19
ENDBRANCH  16  17
BRANCH  16  21
ATOM     21  C   THR A   3      53.129  87.794  46.537  0.00  0.00    +0.229 C 
ATOM     22  O   THR A   3      53.318  86.616  46.279  0.00  0.00    -0.286 OA
ENDBRANCH  16  21
ENDBRANCH  13  16
ENDBRANCH   1  12
BRANCH   1  23
ATOM     23  CB  GLN A   2      51.320  91.878  43.290  0.00  0.00    +0.039 C 
BRANCH  23  24
ATOM     24  CG  GLN A   2      51.982  91.356  42.031  0.00  0.00    +0.087 C 
BRANCH  24  25
ATOM     25  CD  GLN A   2      52.328  92.514  41.120  0.00  0.00    +0.219 C 
ATOM     26  NE2 GLN A   2      53.466  93.171  41.381  0.00  0.00    -0.329 N 
ATOM     27 HE21 GLN A   2      54.086  92.851  42.152  0.00  0.00    +0.145 HD
ATOM     28 HE22 GLN A   2      53.729  94.001  40.813  0.00  0.00    +0.145 HD
ATOM     29  OE1 GLN A   2      51.557  92.850  40.219  0.00  0.00    -0.275 OA
ENDBRANCH  24  25
ENDBRANCH  23  24
ENDBRANCH   1  23
TORSDOF 12
REMARK  Name = ../refined-set-2016/4ezz/4ezz_pocket.pdb
REMARK  237 active torsions:
REMARK  status: ('A' for Active; 'I' for Inactive)
REMARK    1  A    between atoms: _1  and  _3
REMARK    2  A    between atoms: _3  and  _4
REMARK    3  A    between atoms: _3  and  _6
REMARK    4  A    between atoms: _6  and  _7
REMARK    5  A    between atoms: _10  and  _12
REMARK    6  A    between atoms: _12  and  _13
REMARK    7  A    between atoms: _12  and  _15
REMARK    8  A    between atoms: _15  and  _16
REMARK    9  A    between atoms: _16  and  _17
REMARK   10  A    between atoms: _20  and  _22
REMARK   11  A    between atoms: _22  and  _23
REMARK   12  A    between atoms: _22  and  _25
REMARK   13  A    between atoms: _25  and  _26
REMARK   14  A    between atoms: _29  and  _31
REMARK   15  A    between atoms: _31  and  _32
REMARK   16  A    between atoms: _31  and  _34
REMARK   17  A    between atoms: _34  and  _35
REMARK   18  A    between atoms: _35  and  _36
REMARK   19  A    between atoms: _38  and  _40
REMARK   20  A    between atoms: _40  and  _41
REMARK   21  A    between atoms: _43  and  _45
REMARK   22  A    between atoms: _45  and  _46
REMARK   23  A    between atoms: _48  and  _50
REMARK   24  A    between atoms: _50  and  _51
REMARK   25  A    between atoms: _50  and  _53
REMARK   26  A    between atoms: _56  and  _58
REMARK   27  A    between atoms: _58  and  _59
REMARK   28  A    between atoms: _58  and  _61
REMARK   29  A    between atoms: _61  and  _62
REMARK   30  A    between atoms: _62  and  _63
REMARK   31  A    between atoms: _65  and  _67
REMARK   32  A    between atoms: _67  and  _68
REMARK   33  A    between atoms: _67  and  _70
REMARK   34  A    between atoms: _70  and  _71
REMARK   35  A    between atoms: _74  and  _76
REMARK   36  A    between atoms: _76  and  _77
REMARK   37  A    between atoms: _76  and  _79
REMARK   38  A    between atoms: _79  and  _80
REMARK   39  A    between atoms: _83  and  _85
REMARK   40  A    between atoms: _85  and  _86
REMARK   41  A    between atoms: _85  and  _88
REMARK   42  A    between atoms: _88  and  _89
REMARK   43  A    between atoms: _92  and  _94
REMARK   44  A    between atoms: _94  and  _95
REMARK   45  A    between atoms: _94  and  _97
REMARK   46  A    between atoms: _97  and  _98
REMARK   47  A    between atoms: _98  and  _99
REMARK   48  A    between atoms: _104  and  _106
REMARK   49  A    between atoms: _106  and  _107
REMARK   50  A    between atoms: _106  and  _109
REMARK   51  A    between atoms: _112  and  _114
REMARK   52  A    between atoms: _114  and  _115
REMARK   53  A    between atoms: _114  and  _117
REMARK   54  A    between atoms: _117  and  _118
REMARK   55  A    between atoms: _124  and  _126
REMARK   56  A    between atoms: _126  and  _127
REMARK   57  A    between atoms: _126  and  _129
REMARK   58  A    between atoms: _129  and  _130
REMARK   59  A    between atoms: _132  and  _134
REMARK   60  A    between atoms: _134  and  _135
REMARK   61  A    between atoms: _134  and  _137
REMARK   62  A    between atoms: _137  and  _138
REMARK   63  A    between atoms: _141  and  _143
REMARK   64  A    between atoms: _143  and  _144
REMARK   65  A    between atoms: _147  and  _149
REMARK   66  A    between atoms: _149  and  _150
REMARK   67  A    between atoms: _149  and  _152
REMARK   68  A    between atoms: _152  and  _153
REMARK   69  A    between atoms: _153  and  _154
REMARK   70  A    between atoms: _157  and  _159
REMARK   71  A    between atoms: _159  and  _160
REMARK   72  A    between atoms: _159  and  _162
REMARK   73  A    between atoms: _162  and  _163
REMARK   74  A    between atoms: _166  and  _168
REMARK   75  A    between atoms: _168  and  _169
REMARK   76  A    between atoms: _168  and  _171
REMARK   77  A    between atoms: _171  and  _172
REMARK   78  A    between atoms: _177  and  _179
REMARK   79  A    between atoms: _179  and  _180
REMARK   80  A    between atoms: _179  and  _182
REMARK   81  A    between atoms: _182  and  _183
REMARK   82  A    between atoms: _183  and  _184
REMARK   83  A    between atoms: _189  and  _191
REMARK   84  A    between atoms: _191  and  _192
REMARK   85  A    between atoms: _191  and  _194
REMARK   86  A    between atoms: _194  and  _195
REMARK   87  A    between atoms: _197  and  _199
REMARK   88  A    between atoms: _199  and  _200
REMARK   89  A    between atoms: _203  and  _205
REMARK   90  A    between atoms: _205  and  _206
REMARK   91  A    between atoms: _205  and  _208
REMARK   92  A    between atoms: _211  and  _213
REMARK   93  A    between atoms: _213  and  _214
REMARK   94  A    between atoms: _213  and  _216
REMARK   95  A    between atoms: _216  and  _217
REMARK   96  A    between atoms: _220  and  _222
REMARK   97  A    between atoms: _222  and  _223
REMARK   98  A    between atoms: _222  and  _225
REMARK   99  A    between atoms: _225  and  _226
REMARK  100  A    between atoms: _229  and  _231
REMARK  101  A    between atoms: _231  and  _232
REMARK  102  A    between atoms: _231  and  _234
REMARK  103  A    between atoms: _234  and  _235
REMARK  104  A    between atoms: _240  and  _242
REMARK  105  A    between atoms: _242  and  _243
REMARK  106  A    between atoms: _246  and  _248
REMARK  107  A    between atoms: _248  and  _249
REMARK  108  A    between atoms: _248  and  _251
REMARK  109  A    between atoms: _251  and  _252
REMARK  110  A    between atoms: _252  and  _253
REMARK  111  A    between atoms: _258  and  _260
REMARK  112  A    between atoms: _260  and  _261
REMARK  113  A    between atoms: _260  and  _263
REMARK  114  A    between atoms: _263  and  _264
REMARK  115  A    between atoms: _270  and  _272
REMARK  116  A    between atoms: _272  and  _273
REMARK  117  A    between atoms: _272  and  _275
REMARK  118  A    between atoms: _275  and  _276
REMARK  119  A    between atoms: _281  and  _283
REMARK  120  A    between atoms: _283  and  _284
REMARK  121  A    between atoms: _283  and  _286
REMARK  122  A    between atoms: _286  and  _287
REMARK  123  A    between atoms: _290  and  _292
REMARK  124  A    between atoms: _292  and  _293
REMARK  125  A    between atoms: _292  and  _295
REMARK  126  A    between atoms: _295  and  _296
REMARK  127  A    between atoms: _299  and  _301
REMARK  128  A    between atoms: _301  and  _302
REMARK  129  A    between atoms: _304  and  _306
REMARK  130  A    between atoms: _306  and  _307
REMARK  131  A    between atoms: _306  and  _309
REMARK  132  A    between atoms: _309  and  _310
REMARK  133  A    between atoms: _313  and  _315
REMARK  134  A    between atoms: _315  and  _316
REMARK  135  A    between atoms: _315  and  _318
REMARK  136  A    between atoms: _318  and  _319
REMARK  137  A    between atoms: _319  and  _320
REMARK  138  A    between atoms: _320  and  _321
REMARK  139  A    between atoms: _330  and  _332
REMARK  140  A    between atoms: _332  and  _333
REMARK  141  A    between atoms: _335  and  _337
REMARK  142  A    between atoms: _337  and  _338
REMARK  143  A    between atoms: _337  and  _340
REMARK  144  A    between atoms: _340  and  _341
REMARK  145  A    between atoms: _341  and  _342
REMARK  146  A    between atoms: _345  and  _346
REMARK  147  A    between atoms: _351  and  _353
REMARK  148  A    between atoms: _353  and  _354
REMARK  149  A    between atoms: _353  and  _356
REMARK  150  A    between atoms: _356  and  _357
REMARK  151  A    between atoms: _357  and  _358
REMARK  152  A    between atoms: _363  and  _365
REMARK  153  A    between atoms: _365  and  _366
REMARK  154  A    between atoms: _365  and  _368
REMARK  155  A    between atoms: _368  and  _369
REMARK  156  A    between atoms: _372  and  _374
REMARK  157  A    between atoms: _374  and  _375
REMARK  158  A    between atoms: _374  and  _377
REMARK  159  A    between atoms: _377  and  _378
REMARK  160  A    between atoms: _378  and  _379
REMARK  161  A    between atoms: _382  and  _384
REMARK  162  A    between atoms: _384  and  _385
REMARK  163  A    between atoms: _384  and  _387
REMARK  164  A    between atoms: _390  and  _392
REMARK  165  A    between atoms: _392  and  _393
REMARK  166  A    between atoms: _392  and  _395
REMARK  167  A    between atoms: _395  and  _396
REMARK  168  A    between atoms: _398  and  _400
REMARK  169  A    between atoms: _400  and  _401
REMARK  170  A    between atoms: _404  and  _406
REMARK  171  A    between atoms: _406  and  _407
REMARK  172  A    between atoms: _406  and  _409
REMARK  173  A    between atoms: _410  and  _411
REMARK  174  A    between atoms: _412  and  _413
REMARK  175  A    between atoms: _417  and  _419
REMARK  176  A    between atoms: _419  and  _420
REMARK  177  A    between atoms: _419  and  _422
REMARK  178  A    between atoms: _422  and  _423
REMARK  179  A    between atoms: _428  and  _430
REMARK  180  A    between atoms: _430  and  _431
REMARK  181  A    between atoms: _430  and  _433
REMARK  182  A    between atoms: _433  and  _434
REMARK  183  A    between atoms: _437  and  _439
REMARK  184  A    between atoms: _439  and  _440
REMARK  185  A    between atoms: _439  and  _442
REMARK  186  A    between atoms: _442  and  _443
REMARK  187  A    between atoms: _448  and  _450
REMARK  188  A    between atoms: _450  and  _451
REMARK  189  A    between atoms: _450  and  _453
REMARK  190  A    between atoms: _453  and  _454
REMARK  191  A    between atoms: _454  and  _455
REMARK  192  A    between atoms: _455  and  _456
REMARK  193  A    between atoms: _465  and  _467
REMARK  194  A    between atoms: _467  and  _468
REMARK  195  A    between atoms: _467  and  _470
REMARK  196  A    between atoms: _470  and  _471
REMARK  197  A    between atoms: _471  and  _472
REMARK  198  A    between atoms: _475  and  _477
REMARK  199  A    between atoms: _477  and  _478
REMARK  200  A    between atoms: _477  and  _480
REMARK  201  A    between atoms: _483  and  _485
REMARK  202  A    between atoms: _485  and  _486
REMARK  203  A    between atoms: _485  and  _488
REMARK  204  A    between atoms: _488  and  _489
REMARK  205  A    between atoms: _489  and  _490
REMARK  206  A    between atoms: _495  and  _497
REMARK  207  A    between atoms: _497  and  _498
REMARK  208  A    between atoms: _497  and  _500
REMARK  209  A    between atoms: _500  and  _501
REMARK  210  A    between atoms: _504  and  _506
REMARK  211  A    between atoms: _506  and  _507
REMARK  212  A    between atoms: _506  and  _509
REMARK  213  A    between atoms: _509  and  _510
REMARK  214  A    between atoms: _515  and  _517
REMARK  215  A    between atoms: _517  and  _518
REMARK  216  A    between atoms: _517  and  _520
REMARK  217  A    between atoms: _520  and  _521
REMARK  218  A    between atoms: _521  and  _522
REMARK  219  A    between atoms: _527  and  _529
REMARK  220  A    between atoms: _529  and  _530
REMARK  221  A    between atoms: _532  and  _534
REMARK  222  A    between atoms: _534  and  _535
REMARK  223  A    between atoms: _534  and  _537
REMARK  224  A    between atoms: _537  and  _538
REMARK  225  A    between atoms: _543  and  _545
REMARK  226  A    between atoms: _545  and  _546
REMARK  227  A    between atoms: _545  and  _548
REMARK  228  A    between atoms: _548  and  _549
REMARK  229  A    between atoms: _552  and  _554
REMARK  230  A    between atoms: _554  and  _555
REMARK  231  A    between atoms: _554  and  _557
REMARK  232  A    between atoms: _557  and  _558
REMARK  233  A    between atoms: _560  and  _562
REMARK  234  A    between atoms: _562  and  _563
REMARK  235  A    between atoms: _562  and  _565
REMARK  236  A    between atoms: _565  and  _566
REMARK  237  A    between atoms: _566  and  _567
REMARK                            x       y       z     vdW  Elec       q    Type
REMARK                         _______ _______ _______ _____ _____    ______ ____
ROOT
ATOM      1  CA  GLN A   2      51.901  84.794  43.470  0.00  0.00    +0.149 C 
ENDROOT
BRANCH   1   4
ATOM      2  C   ASN A   1      49.875  85.215  44.733  0.00  0.00    +0.239 C 
ATOM      3  O   ASN A   1      49.448  84.095  44.447  0.00  0.00    -0.274 OA
ATOM      4  N   GLN A   2      51.014  85.690  44.230  0.00  0.00    -0.297 N 
ATOM      5  H   GLN A   2      51.274  86.687  44.373  0.00  0.00    +0.150 HD
BRANCH   2   6
ATOM      6  CA  ASN A   1      49.084  86.110  45.670  0.00  0.00    +0.154 C 
BRANCH   6   7
ATOM      7  N   ASN A   1      49.974  86.880  46.559  0.00  0.00    -0.238 NA
ATOM      8  H   ASN A   1      50.037  87.912  46.443  0.00  0.00    +0.142 HD
ENDBRANCH   6   7
BRANCH   6   9
ATOM      9  CB  ASN A   1      48.116  87.030  44.904  0.00  0.00    +0.111 C 
BRANCH   9  10
ATOM     10  CG  ASN A   1      47.196  87.805  45.838  0.00  0.00    +0.221 C 
ATOM     11  OD1 ASN A   1      47.159  87.531  47.050  0.00  0.00    -0.275 OA
ATOM     12  ND2 ASN A   1      46.432  88.762  45.291  0.00  0.00    -0.329 N 
ATOM     13 HD21 ASN A   1      45.777  89.308  45.886  0.00  0.00    +0.145 HD
ATOM     14 HD22 ASN A   1      46.495  88.958  44.272  0.00  0.00    +0.145 HD
ENDBRANCH   9  10
ENDBRANCH   6   9
ENDBRANCH   2   6
ENDBRANCH   1   4
BRANCH   1  15
ATOM     15  C   GLN A   2      52.376  83.668  44.367  0.00  0.00    +0.241 C 
ATOM     16  N   GLY A   3      52.772  83.996  45.585  0.00  0.00    -0.296 N 
ATOM     17  H   GLY A   3      52.742  84.981  45.918  0.00  0.00    +0.150 HD
ATOM     18  O   GLN A   2      52.366  82.487  43.971  0.00  0.00    -0.273 OA
BRANCH  16  19
ATOM     19  CA  GLY A   3      53.255  82.915  46.445  0.00  0.00    +0.163 C 
BRANCH  19  20
ATOM     20  C   GLY A   3      52.155  81.881  46.698  0.00  0.00    +0.229 C 
ATOM     21  O   GLY A   3      52.403  80.694  46.620  0.00  0.00    -0.286 OA
ENDBRANCH  19  20
ENDBRANCH  16  19
ENDBRANCH   1  15
BRANCH   1  22
ATOM     22  CB  GLN A   2      53.107  85.541  42.930  0.00  0.00    +0.039 C 
BRANCH  22  23
ATOM     23  CG  GLN A   2      52.757  86.457  41.759  0.00  0.00    +0.087 C 
BRANCH  23  24
ATOM     24  CD  GLN A   2      53.868  87.456  41.499  0.00  0.00    +0.219 C 
ATOM     25  OE1 GLN A   2      54.775  87.591  42.319  0.00  0.00    -0.275 OA
ATOM     26  NE2 GLN A   2      53.816  88.148  40.380  0.00  0.00    -0.329 N 
ATOM     27 HE21 GLN A   2      54.561  88.841  40.162  0.00  0.00    +0.145 HD
ATOM     28 HE22 GLN A   2      53.030  88.002  39.714  0.00  0.00    +0.145 HD
ENDBRANCH  23  24
ENDBRANCH  22  23
ENDBRANCH   1  22
TORSDOF 11
REMARK  Name = ../refined-set-2016/4ezz/4ezz_pocket.pdb
REMARK  237 active torsions:
REMARK  status: ('A' for Active; 'I' for Inactive)
REMARK    1  A    between atoms: _1  and  _3
REMARK    2  A    between atoms: _3  and  _4
REMARK    3  A    between atoms: _3  and  _6
REMARK    4  A    between atoms: _6  and  _7
REMARK    5  A    between atoms: _10  and  _12
REMARK    6  A    between atoms: _12  and  _13
REMARK    7  A    between atoms: _12  and  _15
REMARK    8  A    between atoms: _15  and  _16
REMARK    9  A    between atoms: _16  and  _17
REMARK   10  A    between atoms: _20  and  _22
REMARK   11  A    between atoms: _22  and  _23
REMARK   12  A    between atoms: _22  and  _25
REMARK   13  A    between atoms: _25  and  _26
REMARK   14  A    between atoms: _29  and  _31
REMARK   15  A    between atoms: _31  and  _32
REMARK   16  A    between atoms: _31  and  _34
REMARK   17  A    between atoms: _34  and  _35
REMARK   18  A    between atoms: _35  and  _36
REMARK   19  A    between atoms: _38  and  _40
REMARK   20  A    between atoms: _40  and  _41
REMARK   21  A    between atoms: _43  and  _45
REMARK   22  A    between atoms: _45  and  _46
REMARK   23  A    between atoms: _48  and  _50
REMARK   24  A    between atoms: _50  and  _51
REMARK   25  A    between atoms: _50  and  _53
REMARK   26  A    between atoms: _56  and  _58
REMARK   27  A    between atoms: _58  and  _59
REMARK   28  A    between atoms: _58  and  _61
REMARK   29  A    between atoms: _61  and  _62
REMARK   30  A    between atoms: _62  and  _63
REMARK   31  A    between atoms: _65  and  _67
REMARK   32  A    between atoms: _67  and  _68
REMARK   33  A    between atoms: _67  and  _70
REMARK   34  A    between atoms: _70  and  _71
REMARK   35  A    between atoms: _74  and  _76
REMARK   36  A    between atoms: _76  and  _77
REMARK   37  A    between atoms: _76  and  _79
REMARK   38  A    between atoms: _79  and  _80
REMARK   39  A    between atoms: _83  and  _85
REMARK   40  A    between atoms: _85  and  _86
REMARK   41  A    between atoms: _85  and  _88
REMARK   42  A    between atoms: _88  and  _89
REMARK   43  A    between atoms: _92  and  _94
REMARK   44  A    between atoms: _94  and  _95
REMARK   45  A    between atoms: _94  and  _97
REMARK   46  A    between atoms: _97  and  _98
REMARK   47  A    between atoms: _98  and  _99
REMARK   48  A    between atoms: _104  and  _106
REMARK   49  A    between atoms: _106  and  _107
REMARK   50  A    between atoms: _106  and  _109
REMARK   51  A    between atoms: _112  and  _114
REMARK   52  A    between atoms: _114  and  _115
REMARK   53  A    between atoms: _114  and  _117
REMARK   54  A    between atoms: _117  and  _118
REMARK   55  A    between atoms: _124  and  _126
REMARK   56  A    between atoms: _126  and  _127
REMARK   57  A    between atoms: _126  and  _129
REMARK   58  A    between atoms: _129  and  _130
REMARK   59  A    between atoms: _132  and  _134
REMARK   60  A    between atoms: _134  and  _135
REMARK   61  A    between atoms: _134  and  _137
REMARK   62  A    between atoms: _137  and  _138
REMARK   63  A    between atoms: _141  and  _143
REMARK   64  A    between atoms: _143  and  _144
REMARK   65  A    between atoms: _147  and  _149
REMARK   66  A    between atoms: _149  and  _150
REMARK   67  A    between atoms: _149  and  _152
REMARK   68  A    between atoms: _152  and  _153
REMARK   69  A    between atoms: _153  and  _154
REMARK   70  A    between atoms: _157  and  _159
REMARK   71  A    between atoms: _159  and  _160
REMARK   72  A    between atoms: _159  and  _162
REMARK   73  A    between atoms: _162  and  _163
REMARK   74  A    between atoms: _166  and  _168
REMARK   75  A    between atoms: _168  and  _169
REMARK   76  A    between atoms: _168  and  _171
REMARK   77  A    between atoms: _171  and  _172
REMARK   78  A    between atoms: _177  and  _179
REMARK   79  A    between atoms: _179  and  _180
REMARK   80  A    between atoms: _179  and  _182
REMARK   81  A    between atoms: _182  and  _183
REMARK   82  A    between atoms: _183  and  _184
REMARK   83  A    between atoms: _189  and  _191
REMARK   84  A    between atoms: _191  and  _192
REMARK   85  A    between atoms: _191  and  _194
REMARK   86  A    between atoms: _194  and  _195
REMARK   87  A    between atoms: _197  and  _199
REMARK   88  A    between atoms: _199  and  _200
REMARK   89  A    between atoms: _203  and  _205
REMARK   90  A    between atoms: _205  and  _206
REMARK   91  A    between atoms: _205  and  _208
REMARK   92  A    between atoms: _211  and  _213
REMARK   93  A    between atoms: _213  and  _214
REMARK   94  A    between atoms: _213  and  _216
REMARK   95  A    between atoms: _216  and  _217
REMARK   96  A    between atoms: _220  and  _222
REMARK   97  A    between atoms: _222  and  _223
REMARK   98  A    between atoms: _222  and  _225
REMARK   99  A    between atoms: _225  and  _226
REMARK  100  A    between atoms: _229  and  _231
REMARK  101  A    between atoms: _231  and  _232
REMARK  102  A    between atoms: _231  and  _234
REMARK  103  A    between atoms: _234  and  _235
REMARK  104  A    between atoms: _240  and  _242
REMARK  105  A    between atoms: _242  and  _243
REMARK  106  A    between atoms: _246  and  _248
REMARK  107  A    between atoms: _248  and  _249
REMARK  108  A    between atoms: _248  and  _251
REMARK  109  A    between atoms: _251  and  _252
REMARK  110  A    between atoms: _252  and  _253
REMARK  111  A    between atoms: _258  and  _260
REMARK  112  A    between atoms: _260  and  _261
REMARK  113  A    between atoms: _260  and  _263
REMARK  114  A    between atoms: _263  and  _264
REMARK  115  A    between atoms: _270  and  _272
REMARK  116  A    between atoms: _272  and  _273
REMARK  117  A    between atoms: _272  and  _275
REMARK  118  A    between atoms: _275  and  _276
REMARK  119  A    between atoms: _281  and  _283
REMARK  120  A    between atoms: _283  and  _284
REMARK  121  A    between atoms: _283  and  _286
REMARK  122  A    between atoms: _286  and  _287
REMARK  123  A    between atoms: _290  and  _292
REMARK  124  A    between atoms: _292  and  _293
REMARK  125  A    between atoms: _292  and  _295
REMARK  126  A    between atoms: _295  and  _296
REMARK  127  A    between atoms: _299  and  _301
REMARK  128  A    between atoms: _301  and  _302
REMARK  129  A    between atoms: _304  and  _306
REMARK  130  A    between atoms: _306  and  _307
REMARK  131  A    between atoms: _306  and  _309
REMARK  132  A    between atoms: _309  and  _310
REMARK  133  A    between atoms: _313  and  _315
REMARK  134  A    between atoms: _315  and  _316
REMARK  135  A    between atoms: _315  and  _318
REMARK  136  A    between atoms: _318  and  _319
REMARK  137  A    between atoms: _319  and  _320
REMARK  138  A    between atoms: _320  and  _321
REMARK  139  A    between atoms: _330  and  _332
REMARK  140  A    between atoms: _332  and  _333
REMARK  141  A    between atoms: _335  and  _337
REMARK  142  A    between atoms: _337  and  _338
REMARK  143  A    between atoms: _337  and  _340
REMARK  144  A    between atoms: _340  and  _341
REMARK  145  A    between atoms: _341  and  _342
REMARK  146  A    between atoms: _345  and  _346
REMARK  147  A    between atoms: _351  and  _353
REMARK  148  A    between atoms: _353  and  _354
REMARK  149  A    between atoms: _353  and  _356
REMARK  150  A    between atoms: _356  and  _357
REMARK  151  A    between atoms: _357  and  _358
REMARK  152  A    between atoms: _363  and  _365
REMARK  153  A    between atoms: _365  and  _366
REMARK  154  A    between atoms: _365  and  _368
REMARK  155  A    between atoms: _368  and  _369
REMARK  156  A    between atoms: _372  and  _374
REMARK  157  A    between atoms: _374  and  _375
REMARK  158  A    between atoms: _374  and  _377
REMARK  159  A    between atoms: _377  and  _378
REMARK  160  A    between atoms: _378  and  _379
REMARK  161  A    between atoms: _382  and  _384
REMARK  162  A    between atoms: _384  and  _385
REMARK  163  A    between atoms: _384  and  _387
REMARK  164  A    between atoms: _390  and  _392
REMARK  165  A    between atoms: _392  and  _393
REMARK  166  A    between atoms: _392  and  _395
REMARK  167  A    between atoms: _395  and  _396
REMARK  168  A    between atoms: _398  and  _400
REMARK  169  A    between atoms: _400  and  _401
REMARK  170  A    between atoms: _404  and  _406
REMARK  171  A    between atoms: _406  and  _407
REMARK  172  A    between atoms: _406  and  _409
REMARK  173  A    between atoms: _410  and  _411
REMARK  174  A    between atoms: _412  and  _413
REMARK  175  A    between atoms: _417  and  _419
REMARK  176  A    between atoms: _419  and  _420
REMARK  177  A    between atoms: _419  and  _422
REMARK  178  A    between atoms: _422  and  _423
REMARK  179  A    between atoms: _428  and  _430
REMARK  180  A    between atoms: _430  and  _431
REMARK  181  A    between atoms: _430  and  _433
REMARK  182  A    between atoms: _433  and  _434
REMARK  183  A    between atoms: _437  and  _439
REMARK  184  A    between atoms: _439  and  _440
REMARK  185  A    between atoms: _439  and  _442
REMARK  186  A    between atoms: _442  and  _443
REMARK  187  A    between atoms: _448  and  _450
REMARK  188  A    between atoms: _450  and  _451
REMARK  189  A    between atoms: _450  and  _453
REMARK  190  A    between atoms: _453  and  _454
REMARK  191  A    between atoms: _454  and  _455
REMARK  192  A    between atoms: _455  and  _456
REMARK  193  A    between atoms: _465  and  _467
REMARK  194  A    between atoms: _467  and  _468
REMARK  195  A    between atoms: _467  and  _470
REMARK  196  A    between atoms: _470  and  _471
REMARK  197  A    between atoms: _471  and  _472
REMARK  198  A    between atoms: _475  and  _477
REMARK  199  A    between atoms: _477  and  _478
REMARK  200  A    between atoms: _477  and  _480
REMARK  201  A    between atoms: _483  and  _485
REMARK  202  A    between atoms: _485  and  _486
REMARK  203  A    between atoms: _485  and  _488
REMARK  204  A    between atoms: _488  and  _489
REMARK  205  A    between atoms: _489  and  _490
REMARK  206  A    between atoms: _495  and  _497
REMARK  207  A    between atoms: _497  and  _498
REMARK  208  A    between atoms: _497  and  _500
REMARK  209  A    between atoms: _500  and  _501
REMARK  210  A    between atoms: _504  and  _506
REMARK  211  A    between atoms: _506  and  _507
REMARK  212  A    between atoms: _506  and  _509
REMARK  213  A    between atoms: _509  and  _510
REMARK  214  A    between atoms: _515  and  _517
REMARK  215  A    between atoms: _517  and  _518
REMARK  216  A    between atoms: _517  and  _520
REMARK  217  A    between atoms: _520  and  _521
REMARK  218  A    between atoms: _521  and  _522
REMARK  219  A    between atoms: _527  and  _529
REMARK  220  A    between atoms: _529  and  _530
REMARK  221  A    between atoms: _532  and  _534
REMARK  222  A    between atoms: _534  and  _535
REMARK  223  A    between atoms: _534  and  _537
REMARK  224  A    between atoms: _537  and  _538
REMARK  225  A    between atoms: _543  and  _545
REMARK  226  A    between atoms: _545  and  _546
REMARK  227  A    between atoms: _545  and  _548
REMARK  228  A    between atoms: _548  and  _549
REMARK  229  A    between atoms: _552  and  _554
REMARK  230  A    between atoms: _554  and  _555
REMARK  231  A    between atoms: _554  and  _557
REMARK  232  A    between atoms: _557  and  _558
REMARK  233  A    between atoms: _560  and  _562
REMARK  234  A    between atoms: _562  and  _563
REMARK  235  A    between atoms: _562  and  _565
REMARK  236  A    between atoms: _565  and  _566
REMARK  237  A    between atoms: _566  and  _567
REMARK                            x       y       z     vdW  Elec       q    Type
REMARK                         _______ _______ _______ _____ _____    ______ ____
ROOT
ATOM      1  C   HIS A   1      50.418  79.372  43.332  0.00  0.00    +0.239 C 
ATOM      2  N   LEU A   2      51.640  79.694  43.750  0.00  0.00    -0.298 N 
ATOM      3  H   LEU A   2      51.805  80.620  44.193  0.00  0.00    +0.150 HD
ATOM      4  O   HIS A   1      50.167  78.280  42.845  0.00  0.00    -0.274 OA
ENDROOT
BRANCH   1   5
ATOM      5  CA  HIS A   1      49.346  80.414  43.499  0.00  0.00    +0.151 C 
BRANCH   5   6
ATOM      6  N   HIS A   1      49.576  81.160  44.722  0.00  0.00    -0.238 NA
ATOM      7  H   HIS A   1      49.805  82.173  44.662  0.00  0.00    +0.142 HD
ENDBRANCH   5   6
BRANCH   5   8
ATOM      8  CB  HIS A   1      49.303  81.358  42.290  0.00  0.00    +0.074 C 
BRANCH   8   9
ATOM      9  CG  HIS A   1      49.477  80.660  40.944  0.00  0.00    +0.082 A 
ATOM     10  ND1 HIS A   1      50.600  79.956  40.615  0.00  0.00    -0.227 NA
ATOM     11  CE1 HIS A   1      50.465  79.429  39.375  0.00  0.00    +0.199 A 
ATOM     12  NE2 HIS A   1      49.263  79.802  38.896  0.00  0.00    -0.221 NA
ATOM     13  CD2 HIS A   1      48.624  80.562  39.840  0.00  0.00    +0.115 A 
ENDBRANCH   8   9
ENDBRANCH   5   8
ENDBRANCH   1   5
BRANCH   2  14
ATOM     14  CA  LEU A   2      52.744  78.765  43.594  0.00  0.00    +0.137 C 
BRANCH  14  15
ATOM     15  C   LEU A   2      52.623  77.629  44.620  0.00  0.00    +0.227 C 
ATOM     16  O   LEU A   2      52.886  76.451  44.310  0.00  0.00    -0.286 OA
ENDBRANCH  14  15
BRANCH  14  17
ATOM     17  CB  LEU A   2      54.070  79.541  43.701  0.00  0.00    +0.028 C 
BRANCH  17  18
ATOM     18  CG  LEU A   2      55.347  78.738  43.772  0.00  0.00    +0.002 C 
ATOM     19  CD2 LEU A   2      56.458  79.586  44.342  0.00  0.00    +0.000 C 
ATOM     20  CD1 LEU A   2      55.723  78.258  42.381  0.00  0.00    +0.000 C 
ENDBRANCH  17  18
ENDBRANCH  14  17
ENDBRANCH   2  14
TORSDOF 8
REMARK  Name = ../refined-set-2016/4ezz/4ezz_pocket.pdb
REMARK  237 active torsions:
REMARK  status: ('A' for Active; 'I' for Inactive)
REMARK    1  A    between atoms: _1  and  _3
REMARK    2  A    between atoms: _3  and  _4
REMARK    3  A    between atoms: _3  and  _6
REMARK    4  A    between atoms: _6  and  _7
REMARK    5  A    between atoms: _10  and  _12
REMARK    6  A    between atoms: _12  and  _13
REMARK    7  A    between atoms: _12  and  _15
REMARK    8  A    between atoms: _15  and  _16
REMARK    9  A    between atoms: _16  and  _17
REMARK   10  A    between atoms: _20  and  _22
REMARK   11  A    between atoms: _22  and  _23
REMARK   12  A    between atoms: _22  and  _25
REMARK   13  A    between atoms: _25  and  _26
REMARK   14  A    between atoms: _29  and  _31
REMARK   15  A    between atoms: _31  and  _32
REMARK   16  A    between atoms: _31  and  _34
REMARK   17  A    between atoms: _34  and  _35
REMARK   18  A    between atoms: _35  and  _36
REMARK   19  A    between atoms: _38  and  _40
REMARK   20  A    between atoms: _40  and  _41
REMARK   21  A    between atoms: _43  and  _45
REMARK   22  A    between atoms: _45  and  _46
REMARK   23  A    between atoms: _48  and  _50
REMARK   24  A    between atoms: _50  and  _51
REMARK   25  A    between atoms: _50  and  _53
REMARK   26  A    between atoms: _56  and  _58
REMARK   27  A    between atoms: _58  and  _59
REMARK   28  A    between atoms: _58  and  _61
REMARK   29  A    between atoms: _61  and  _62
REMARK   30  A    between atoms: _62  and  _63
REMARK   31  A    between atoms: _65  and  _67
REMARK   32  A    between atoms: _67  and  _68
REMARK   33  A    between atoms: _67  and  _70
REMARK   34  A    between atoms: _70  and  _71
REMARK   35  A    between atoms: _74  and  _76
REMARK   36  A    between atoms: _76  and  _77
REMARK   37  A    between atoms: _76  and  _79
REMARK   38  A    between atoms: _79  and  _80
REMARK   39  A    between atoms: _83  and  _85
REMARK   40  A    between atoms: _85  and  _86
REMARK   41  A    between atoms: _85  and  _88
REMARK   42  A    between atoms: _88  and  _89
REMARK   43  A    between atoms: _92  and  _94
REMARK   44  A    between atoms: _94  and  _95
REMARK   45  A    between atoms: _94  and  _97
REMARK   46  A    between atoms: _97  and  _98
REMARK   47  A    between atoms: _98  and  _99
REMARK   48  A    between atoms: _104  and  _106
REMARK   49  A    between atoms: _106  and  _107
REMARK   50  A    between atoms: _106  and  _109
REMARK   51  A    between atoms: _112  and  _114
REMARK   52  A    between atoms: _114  and  _115
REMARK   53  A    between atoms: _114  and  _117
REMARK   54  A    between atoms: _117  and  _118
REMARK   55  A    between atoms: _124  and  _126
REMARK   56  A    between atoms: _126  and  _127
REMARK   57  A    between atoms: _126  and  _129
REMARK   58  A    between atoms: _129  and  _130
REMARK   59  A    between atoms: _132  and  _134
REMARK   60  A    between atoms: _134  and  _135
REMARK   61  A    between atoms: _134  and  _137
REMARK   62  A    between atoms: _137  and  _138
REMARK   63  A    between atoms: _141  and  _143
REMARK   64  A    between atoms: _143  and  _144
REMARK   65  A    between atoms: _147  and  _149
REMARK   66  A    between atoms: _149  and  _150
REMARK   67  A    between atoms: _149  and  _152
REMARK   68  A    between atoms: _152  and  _153
REMARK   69  A    between atoms: _153  and  _154
REMARK   70  A    between atoms: _157  and  _159
REMARK   71  A    between atoms: _159  and  _160
REMARK   72  A    between atoms: _159  and  _162
REMARK   73  A    between atoms: _162  and  _163
REMARK   74  A    between atoms: _166  and  _168
REMARK   75  A    between atoms: _168  and  _169
REMARK   76  A    between atoms: _168  and  _171
REMARK   77  A    between atoms: _171  and  _172
REMARK   78  A    between atoms: _177  and  _179
REMARK   79  A    between atoms: _179  and  _180
REMARK   80  A    between atoms: _179  and  _182
REMARK   81  A    between atoms: _182  and  _183
REMARK   82  A    between atoms: _183  and  _184
REMARK   83  A    between atoms: _189  and  _191
REMARK   84  A    between atoms: _191  and  _192
REMARK   85  A    between atoms: _191  and  _194
REMARK   86  A    between atoms: _194  and  _195
REMARK   87  A    between atoms: _197  and  _199
REMARK   88  A    between atoms: _199  and  _200
REMARK   89  A    between atoms: _203  and  _205
REMARK   90  A    between atoms: _205  and  _206
REMARK   91  A    between atoms: _205  and  _208
REMARK   92  A    between atoms: _211  and  _213
REMARK   93  A    between atoms: _213  and  _214
REMARK   94  A    between atoms: _213  and  _216
REMARK   95  A    between atoms: _216  and  _217
REMARK   96  A    between atoms: _220  and  _222
REMARK   97  A    between atoms: _222  and  _223
REMARK   98  A    between atoms: _222  and  _225
REMARK   99  A    between atoms: _225  and  _226
REMARK  100  A    between atoms: _229  and  _231
REMARK  101  A    between atoms: _231  and  _232
REMARK  102  A    between atoms: _231  and  _234
REMARK  103  A    between atoms: _234  and  _235
REMARK  104  A    between atoms: _240  and  _242
REMARK  105  A    between atoms: _242  and  _243
REMARK  106  A    between atoms: _246  and  _248
REMARK  107  A    between atoms: _248  and  _249
REMARK  108  A    between atoms: _248  and  _251
REMARK  109  A    between atoms: _251  and  _252
REMARK  110  A    between atoms: _252  and  _253
REMARK  111  A    between atoms: _258  and  _260
REMARK  112  A    between atoms: _260  and  _261
REMARK  113  A    between atoms: _260  and  _263
REMARK  114  A    between atoms: _263  and  _264
REMARK  115  A    between atoms: _270  and  _272
REMARK  116  A    between atoms: _272  and  _273
REMARK  117  A    between atoms: _272  and  _275
REMARK  118  A    between atoms: _275  and  _276
REMARK  119  A    between atoms: _281  and  _283
REMARK  120  A    between atoms: _283  and  _284
REMARK  121  A    between atoms: _283  and  _286
REMARK  122  A    between atoms: _286  and  _287
REMARK  123  A    between atoms: _290  and  _292
REMARK  124  A    between atoms: _292  and  _293
REMARK  125  A    between atoms: _292  and  _295
REMARK  126  A    between atoms: _295  and  _296
REMARK  127  A    between atoms: _299  and  _301
REMARK  128  A    between atoms: _301  and  _302
REMARK  129  A    between atoms: _304  and  _306
REMARK  130  A    between atoms: _306  and  _307
REMARK  131  A    between atoms: _306  and  _309
REMARK  132  A    between atoms: _309  and  _310
REMARK  133  A    between atoms: _313  and  _315
REMARK  134  A    between atoms: _315  and  _316
REMARK  135  A    between atoms: _315  and  _318
REMARK  136  A    between atoms: _318  and  _319
REMARK  137  A    between atoms: _319  and  _320
REMARK  138  A    between atoms: _320  and  _321
REMARK  139  A    between atoms: _330  and  _332
REMARK  140  A    between atoms: _332  and  _333
REMARK  141  A    between atoms: _335  and  _337
REMARK  142  A    between atoms: _337  and  _338
REMARK  143  A    between atoms: _337  and  _340
REMARK  144  A    between atoms: _340  and  _341
REMARK  145  A    between atoms: _341  and  _342
REMARK  146  A    between atoms: _345  and  _346
REMARK  147  A    between atoms: _351  and  _353
REMARK  148  A    between atoms: _353  and  _354
REMARK  149  A    between atoms: _353  and  _356
REMARK  150  A    between atoms: _356  and  _357
REMARK  151  A    between atoms: _357  and  _358
REMARK  152  A    between atoms: _363  and  _365
REMARK  153  A    between atoms: _365  and  _366
REMARK  154  A    between atoms: _365  and  _368
REMARK  155  A    between atoms: _368  and  _369
REMARK  156  A    between atoms: _372  and  _374
REMARK  157  A    between atoms: _374  and  _375
REMARK  158  A    between atoms: _374  and  _377
REMARK  159  A    between atoms: _377  and  _378
REMARK  160  A    between atoms: _378  and  _379
REMARK  161  A    between atoms: _382  and  _384
REMARK  162  A    between atoms: _384  and  _385
REMARK  163  A    between atoms: _384  and  _387
REMARK  164  A    between atoms: _390  and  _392
REMARK  165  A    between atoms: _392  and  _393
REMARK  166  A    between atoms: _392  and  _395
REMARK  167  A    between atoms: _395  and  _396
REMARK  168  A    between atoms: _398  and  _400
REMARK  169  A    between atoms: _400  and  _401
REMARK  170  A    between atoms: _404  and  _406
REMARK  171  A    between atoms: _406  and  _407
REMARK  172  A    between atoms: _406  and  _409
REMARK  173  A    between atoms: _410  and  _411
REMARK  174  A    between atoms: _412  and  _413
REMARK  175  A    between atoms: _417  and  _419
REMARK  176  A    between atoms: _419  and  _420
REMARK  177  A    between atoms: _419  and  _422
REMARK  178  A    between atoms: _422  and  _423
REMARK  179  A    between atoms: _428  and  _430
REMARK  180  A    between atoms: _430  and  _431
REMARK  181  A    between atoms: _430  and  _433
REMARK  182  A    between atoms: _433  and  _434
REMARK  183  A    between atoms: _437  and  _439
REMARK  184  A    between atoms: _439  and  _440
REMARK  185  A    between atoms: _439  and  _442
REMARK  186  A    between atoms: _442  and  _443
REMARK  187  A    between atoms: _448  and  _450
REMARK  188  A    between atoms: _450  and  _451
REMARK  189  A    between atoms: _450  and  _453
REMARK  190  A    between atoms: _453  and  _454
REMARK  191  A    between atoms: _454  and  _455
REMARK  192  A    between atoms: _455  and  _456
REMARK  193  A    between atoms: _465  and  _467
REMARK  194  A    between atoms: _467  and  _468
REMARK  195  A    between atoms: _467  and  _470
REMARK  196  A    between atoms: _470  and  _471
REMARK  197  A    between atoms: _471  and  _472
REMARK  198  A    between atoms: _475  and  _477
REMARK  199  A    between atoms: _477  and  _478
REMARK  200  A    between atoms: _477  and  _480
REMARK  201  A    between atoms: _483  and  _485
REMARK  202  A    between atoms: _485  and  _486
REMARK  203  A    between atoms: _485  and  _488
REMARK  204  A    between atoms: _488  and  _489
REMARK  205  A    between atoms: _489  and  _490
REMARK  206  A    between atoms: _495  and  _497
REMARK  207  A    between atoms: _497  and  _498
REMARK  208  A    between atoms: _497  and  _500
REMARK  209  A    between atoms: _500  and  _501
REMARK  210  A    between atoms: _504  and  _506
REMARK  211  A    between atoms: _506  and  _507
REMARK  212  A    between atoms: _506  and  _509
REMARK  213  A    between atoms: _509  and  _510
REMARK  214  A    between atoms: _515  and  _517
REMARK  215  A    between atoms: _517  and  _518
REMARK  216  A    between atoms: _517  and  _520
REMARK  217  A    between atoms: _520  and  _521
REMARK  218  A    between atoms: _521  and  _522
REMARK  219  A    between atoms: _527  and  _529
REMARK  220  A    between atoms: _529  and  _530
REMARK  221  A    between atoms: _532  and  _534
REMARK  222  A    between atoms: _534  and  _535
REMARK  223  A    between atoms: _534  and  _537
REMARK  224  A    between atoms: _537  and  _538
REMARK  225  A    between atoms: _543  and  _545
REMARK  226  A    between atoms: _545  and  _546
REMARK  227  A    between atoms: _545  and  _548
REMARK  228  A    between atoms: _548  and  _549
REMARK  229  A    between atoms: _552  and  _554
REMARK  230  A    between atoms: _554  and  _555
REMARK  231  A    between atoms: _554  and  _557
REMARK  232  A    between atoms: _557  and  _558
REMARK  233  A    between atoms: _560  and  _562
REMARK  234  A    between atoms: _562  and  _563
REMARK  235  A    between atoms: _562  and  _565
REMARK  236  A    between atoms: _565  and  _566
REMARK  237  A    between atoms: _566  and  _567
REMARK                            x       y       z     vdW  Elec       q    Type
REMARK                         _______ _______ _______ _____ _____    ______ ____
ROOT
ATOM      1  CA  SER A   1      50.014  74.656  42.027  0.00  0.00    +0.163 C 
ENDROOT
BRANCH   1   2
ATOM      2  N   SER A   1      49.657  75.445  43.215  0.00  0.00    -0.237 NA
ATOM      3  H   SER A   1      49.912  76.452  43.262  0.00  0.00    +0.142 HD
ENDBRANCH   1   2
BRANCH   1   4
ATOM      4  CB  SER A   1      51.024  73.542  42.292  0.00  0.00    +0.227 C 
ATOM      5  OG  SER A   1      50.966  72.458  41.697  0.00  0.00    -0.287 OA
ENDBRANCH   1   4
BRANCH   1   6
ATOM      6  C   SER A   1      50.616  75.558  40.960  0.00  0.00    +0.162 C 
BRANCH   6   7
ATOM      7  O   SER A   1      49.676  76.549  40.594  0.00  0.00    -0.380 OA
ATOM      8  H   SER A   1      49.441  77.090  41.390  0.00  0.00    +0.211 HD
ENDBRANCH   6   7
ENDBRANCH   1   6
TORSDOF 4
REMARK  Name = ../refined-set-2016/4ezz/4ezz_pocket.pdb
REMARK  237 active torsions:
REMARK  status: ('A' for Active; 'I' for Inactive)
REMARK    1  A    between atoms: _1  and  _3
REMARK    2  A    between atoms: _3  and  _4
REMARK    3  A    between atoms: _3  and  _6
REMARK    4  A    between atoms: _6  and  _7
REMARK    5  A    between atoms: _10  and  _12
REMARK    6  A    between atoms: _12  and  _13
REMARK    7  A    between atoms: _12  and  _15
REMARK    8  A    between atoms: _15  and  _16
REMARK    9  A    between atoms: _16  and  _17
REMARK   10  A    between atoms: _20  and  _22
REMARK   11  A    between atoms: _22  and  _23
REMARK   12  A    between atoms: _22  and  _25
REMARK   13  A    between atoms: _25  and  _26
REMARK   14  A    between atoms: _29  and  _31
REMARK   15  A    between atoms: _31  and  _32
REMARK   16  A    between atoms: _31  and  _34
REMARK   17  A    between atoms: _34  and  _35
REMARK   18  A    between atoms: _35  and  _36
REMARK   19  A    between atoms: _38  and  _40
REMARK   20  A    between atoms: _40  and  _41
REMARK   21  A    between atoms: _43  and  _45
REMARK   22  A    between atoms: _45  and  _46
REMARK   23  A    between atoms: _48  and  _50
REMARK   24  A    between atoms: _50  and  _51
REMARK   25  A    between atoms: _50  and  _53
REMARK   26  A    between atoms: _56  and  _58
REMARK   27  A    between atoms: _58  and  _59
REMARK   28  A    between atoms: _58  and  _61
REMARK   29  A    between atoms: _61  and  _62
REMARK   30  A    between atoms: _62  and  _63
REMARK   31  A    between atoms: _65  and  _67
REMARK   32  A    between atoms: _67  and  _68
REMARK   33  A    between atoms: _67  and  _70
REMARK   34  A    between atoms: _70  and  _71
REMARK   35  A    between atoms: _74  and  _76
REMARK   36  A    between atoms: _76  and  _77
REMARK   37  A    between atoms: _76  and  _79
REMARK   38  A    between atoms: _79  and  _80
REMARK   39  A    between atoms: _83  and  _85
REMARK   40  A    between atoms: _85  and  _86
REMARK   41  A    between atoms: _85  and  _88
REMARK   42  A    between atoms: _88  and  _89
REMARK   43  A    between atoms: _92  and  _94
REMARK   44  A    between atoms: _94  and  _95
REMARK   45  A    between atoms: _94  and  _97
REMARK   46  A    between atoms: _97  and  _98
REMARK   47  A    between atoms: _98  and  _99
REMARK   48  A    between atoms: _104  and  _106
REMARK   49  A    between atoms: _106  and  _107
REMARK   50  A    between atoms: _106  and  _109
REMARK   51  A    between atoms: _112  and  _114
REMARK   52  A    between atoms: _114  and  _115
REMARK   53  A    between atoms: _114  and  _117
REMARK   54  A    between atoms: _117  and  _118
REMARK   55  A    between atoms: _124  and  _126
REMARK   56  A    between atoms: _126  and  _127
REMARK   57  A    between atoms: _126  and  _129
REMARK   58  A    between atoms: _129  and  _130
REMARK   59  A    between atoms: _132  and  _134
REMARK   60  A    between atoms: _134  and  _135
REMARK   61  A    between atoms: _134  and  _137
REMARK   62  A    between atoms: _137  and  _138
REMARK   63  A    between atoms: _141  and  _143
REMARK   64  A    between atoms: _143  and  _144
REMARK   65  A    between atoms: _147  and  _149
REMARK   66  A    between atoms: _149  and  _150
REMARK   67  A    between atoms: _149  and  _152
REMARK   68  A    between atoms: _152  and  _153
REMARK   69  A    between atoms: _153  and  _154
REMARK   70  A    between atoms: _157  and  _159
REMARK   71  A    between atoms: _159  and  _160
REMARK   72  A    between atoms: _159  and  _162
REMARK   73  A    between atoms: _162  and  _163
REMARK   74  A    between atoms: _166  and  _168
REMARK   75  A    between atoms: _168  and  _169
REMARK   76  A    between atoms: _168  and  _171
REMARK   77  A    between atoms: _171  and  _172
REMARK   78  A    between atoms: _177  and  _179
REMARK   79  A    between atoms: _179  and  _180
REMARK   80  A    between atoms: _179  and  _182
REMARK   81  A    between atoms: _182  and  _183
REMARK   82  A    between atoms: _183  and  _184
REMARK   83  A    between atoms: _189  and  _191
REMARK   84  A    between atoms: _191  and  _192
REMARK   85  A    between atoms: _191  and  _194
REMARK   86  A    between atoms: _194  and  _195
REMARK   87  A    between atoms: _197  and  _199
REMARK   88  A    between atoms: _199  and  _200
REMARK   89  A    between atoms: _203  and  _205
REMARK   90  A    between atoms: _205  and  _206
REMARK   91  A    between atoms: _205  and  _208
REMARK   92  A    between atoms: _211  and  _213
REMARK   93  A    between atoms: _213  and  _214
REMARK   94  A    between atoms: _213  and  _216
REMARK   95  A    between atoms: _216  and  _217
REMARK   96  A    between atoms: _220  and  _222
REMARK   97  A    between atoms: _222  and  _223
REMARK   98  A    between atoms: _222  and  _225
REMARK   99  A    between atoms: _225  and  _226
REMARK  100  A    between atoms: _229  and  _231
REMARK  101  A    between atoms: _231  and  _232
REMARK  102  A    between atoms: _231  and  _234
REMARK  103  A    between atoms: _234  and  _235
REMARK  104  A    between atoms: _240  and  _242
REMARK  105  A    between atoms: _242  and  _243
REMARK  106  A    between atoms: _246  and  _248
REMARK  107  A    between atoms: _248  and  _249
REMARK  108  A    between atoms: _248  and  _251
REMARK  109  A    between atoms: _251  and  _252
REMARK  110  A    between atoms: _252  and  _253
REMARK  111  A    between atoms: _258  and  _260
REMARK  112  A    between atoms: _260  and  _261
REMARK  113  A    between atoms: _260  and  _263
REMARK  114  A    between atoms: _263  and  _264
REMARK  115  A    between atoms: _270  and  _272
REMARK  116  A    between atoms: _272  and  _273
REMARK  117  A    between atoms: _272  and  _275
REMARK  118  A    between atoms: _275  and  _276
REMARK  119  A    between atoms: _281  and  _283
REMARK  120  A    between atoms: _283  and  _284
REMARK  121  A    between atoms: _283  and  _286
REMARK  122  A    between atoms: _286  and  _287
REMARK  123  A    between atoms: _290  and  _292
REMARK  124  A    between atoms: _292  and  _293
REMARK  125  A    between atoms: _292  and  _295
REMARK  126  A    between atoms: _295  and  _296
REMARK  127  A    between atoms: _299  and  _301
REMARK  128  A    between atoms: _301  and  _302
REMARK  129  A    between atoms: _304  and  _306
REMARK  130  A    between atoms: _306  and  _307
REMARK  131  A    between atoms: _306  and  _309
REMARK  132  A    between atoms: _309  and  _310
REMARK  133  A    between atoms: _313  and  _315
REMARK  134  A    between atoms: _315  and  _316
REMARK  135  A    between atoms: _315  and  _318
REMARK  136  A    between atoms: _318  and  _319
REMARK  137  A    between atoms: _319  and  _320
REMARK  138  A    between atoms: _320  and  _321
REMARK  139  A    between atoms: _330  and  _332
REMARK  140  A    between atoms: _332  and  _333
REMARK  141  A    between atoms: _335  and  _337
REMARK  142  A    between atoms: _337  and  _338
REMARK  143  A    between atoms: _337  and  _340
REMARK  144  A    between atoms: _340  and  _341
REMARK  145  A    between atoms: _341  and  _342
REMARK  146  A    between atoms: _345  and  _346
REMARK  147  A    between atoms: _351  and  _353
REMARK  148  A    between atoms: _353  and  _354
REMARK  149  A    between atoms: _353  and  _356
REMARK  150  A    between atoms: _356  and  _357
REMARK  151  A    between atoms: _357  and  _358
REMARK  152  A    between atoms: _363  and  _365
REMARK  153  A    between atoms: _365  and  _366
REMARK  154  A    between atoms: _365  and  _368
REMARK  155  A    between atoms: _368  and  _369
REMARK  156  A    between atoms: _372  and  _374
REMARK  157  A    between atoms: _374  and  _375
REMARK  158  A    between atoms: _374  and  _377
REMARK  159  A    between atoms: _377  and  _378
REMARK  160  A    between atoms: _378  and  _379
REMARK  161  A    between atoms: _382  and  _384
REMARK  162  A    between atoms: _384  and  _385
REMARK  163  A    between atoms: _384  and  _387
REMARK  164  A    between atoms: _390  and  _392
REMARK  165  A    between atoms: _392  and  _393
REMARK  166  A    between atoms: _392  and  _395
REMARK  167  A    between atoms: _395  and  _396
REMARK  168  A    between atoms: _398  and  _400
REMARK  169  A    between atoms: _400  and  _401
REMARK  170  A    between atoms: _404  and  _406
REMARK  171  A    between atoms: _406  and  _407
REMARK  172  A    between atoms: _406  and  _409
REMARK  173  A    between atoms: _410  and  _411
REMARK  174  A    between atoms: _412  and  _413
REMARK  175  A    between atoms: _417  and  _419
REMARK  176  A    between atoms: _419  and  _420
REMARK  177  A    between atoms: _419  and  _422
REMARK  178  A    between atoms: _422  and  _423
REMARK  179  A    between atoms: _428  and  _430
REMARK  180  A    between atoms: _430  and  _431
REMARK  181  A    between atoms: _430  and  _433
REMARK  182  A    between atoms: _433  and  _434
REMARK  183  A    between atoms: _437  and  _439
REMARK  184  A    between atoms: _439  and  _440
REMARK  185  A    between atoms: _439  and  _442
REMARK  186  A    between atoms: _442  and  _443
REMARK  187  A    between atoms: _448  and  _450
REMARK  188  A    between atoms: _450  and  _451
REMARK  189  A    between atoms: _450  and  _453
REMARK  190  A    between atoms: _453  and  _454
REMARK  191  A    between atoms: _454  and  _455
REMARK  192  A    between atoms: _455  and  _456
REMARK  193  A    between atoms: _465  and  _467
REMARK  194  A    between atoms: _467  and  _468
REMARK  195  A    between atoms: _467  and  _470
REMARK  196  A    between atoms: _470  and  _471
REMARK  197  A    between atoms: _471  and  _472
REMARK  198  A    between atoms: _475  and  _477
REMARK  199  A    between atoms: _477  and  _478
REMARK  200  A    between atoms: _477  and  _480
REMARK  201  A    between atoms: _483  and  _485
REMARK  202  A    between atoms: _485  and  _486
REMARK  203  A    between atoms: _485  and  _488
REMARK  204  A    between atoms: _488  and  _489
REMARK  205  A    between atoms: _489  and  _490
REMARK  206  A    between atoms: _495  and  _497
REMARK  207  A    between atoms: _497  and  _498
REMARK  208  A    between atoms: _497  and  _500
REMARK  209  A    between atoms: _500  and  _501
REMARK  210  A    between atoms: _504  and  _506
REMARK  211  A    between atoms: _506  and  _507
REMARK  212  A    between atoms: _506  and  _509
REMARK  213  A    between atoms: _509  and  _510
REMARK  214  A    between atoms: _515  and  _517
REMARK  215  A    between atoms: _517  and  _518
REMARK  216  A    between atoms: _517  and  _520
REMARK  217  A    between atoms: _520  and  _521
REMARK  218  A    between atoms: _521  and  _522
REMARK  219  A    between atoms: _527  and  _529
REMARK  220  A    between atoms: _529  and  _530
REMARK  221  A    between atoms: _532  and  _534
REMARK  222  A    between atoms: _534  and  _535
REMARK  223  A    between atoms: _534  and  _537
REMARK  224  A    between atoms: _537  and  _538
REMARK  225  A    between atoms: _543  and  _545
REMARK  226  A    between atoms: _545  and  _546
REMARK  227  A    between atoms: _545  and  _548
REMARK  228  A    between atoms: _548  and  _549
REMARK  229  A    between atoms: _552  and  _554
REMARK  230  A    between atoms: _554  and  _555
REMARK  231  A    between atoms: _554  and  _557
REMARK  232  A    between atoms: _557  and  _558
REMARK  233  A    between atoms: _560  and  _562
REMARK  234  A    between atoms: _562  and  _563
REMARK  235  A    between atoms: _562  and  _565
REMARK  236  A    between atoms: _565  and  _566
REMARK  237  A    between atoms: _566  and  _567
REMARK                            x       y       z     vdW  Elec       q    Type
REMARK                         _______ _______ _______ _____ _____    ______ ____
ROOT
ATOM      1  CA  MET A   1      59.252  81.155  46.705  0.00  0.00    +0.134 C 
ENDROOT
BRANCH   1   2
ATOM      2  N   MET A   1      59.691  81.521  48.058  0.00  0.00    -0.239 NA
ATOM      3  H   MET A   1      59.671  82.520  48.348  0.00  0.00    +0.142 HD
ENDBRANCH   1   2
BRANCH   1   4
ATOM      4  C   MET A   1      60.403  80.726  45.853  0.00  0.00    +0.224 C 
ATOM      5  O   MET A   1      60.221  79.923  44.892  0.00  0.00    -0.287 OA
ENDBRANCH   1   4
BRANCH   1   6
ATOM      6  CB  MET A   1      58.593  82.336  46.005  0.00  0.00    +0.037 C 
BRANCH   6   7
ATOM      7  CG  MET A   1      57.200  82.710  46.558  0.00  0.00    +0.059 C 
BRANCH   7   8
ATOM      8  SD  MET A   1      56.426  84.227  45.880  0.00  0.00    -0.139 S 
ATOM      9  CE  MET A   1      56.251  83.795  44.126  0.00  0.00    +0.069 C 
ENDBRANCH   7   8
ENDBRANCH   6   7
ENDBRANCH   1   6
TORSDOF 5
REMARK  Name = ../refined-set-2016/4ezz/4ezz_pocket.pdb
REMARK  237 active torsions:
REMARK  status: ('A' for Active; 'I' for Inactive)
REMARK    1  A    between atoms: _1  and  _3
REMARK    2  A    between atoms: _3  and  _4
REMARK    3  A    between atoms: _3  and  _6
REMARK    4  A    between atoms: _6  and  _7
REMARK    5  A    between atoms: _10  and  _12
REMARK    6  A    between atoms: _12  and  _13
REMARK    7  A    between atoms: _12  and  _15
REMARK    8  A    between atoms: _15  and  _16
REMARK    9  A    between atoms: _16  and  _17
REMARK   10  A    between atoms: _20  and  _22
REMARK   11  A    between atoms: _22  and  _23
REMARK   12  A    between atoms: _22  and  _25
REMARK   13  A    between atoms: _25  and  _26
REMARK   14  A    between atoms: _29  and  _31
REMARK   15  A    between atoms: _31  and  _32
REMARK   16  A    between atoms: _31  and  _34
REMARK   17  A    between atoms: _34  and  _35
REMARK   18  A    between atoms: _35  and  _36
REMARK   19  A    between atoms: _38  and  _40
REMARK   20  A    between atoms: _40  and  _41
REMARK   21  A    between atoms: _43  and  _45
REMARK   22  A    between atoms: _45  and  _46
REMARK   23  A    between atoms: _48  and  _50
REMARK   24  A    between atoms: _50  and  _51
REMARK   25  A    between atoms: _50  and  _53
REMARK   26  A    between atoms: _56  and  _58
REMARK   27  A    between atoms: _58  and  _59
REMARK   28  A    between atoms: _58  and  _61
REMARK   29  A    between atoms: _61  and  _62
REMARK   30  A    between atoms: _62  and  _63
REMARK   31  A    between atoms: _65  and  _67
REMARK   32  A    between atoms: _67  and  _68
REMARK   33  A    between atoms: _67  and  _70
REMARK   34  A    between atoms: _70  and  _71
REMARK   35  A    between atoms: _74  and  _76
REMARK   36  A    between atoms: _76  and  _77
REMARK   37  A    between atoms: _76  and  _79
REMARK   38  A    between atoms: _79  and  _80
REMARK   39  A    between atoms: _83  and  _85
REMARK   40  A    between atoms: _85  and  _86
REMARK   41  A    between atoms: _85  and  _88
REMARK   42  A    between atoms: _88  and  _89
REMARK   43  A    between atoms: _92  and  _94
REMARK   44  A    between atoms: _94  and  _95
REMARK   45  A    between atoms: _94  and  _97
REMARK   46  A    between atoms: _97  and  _98
REMARK   47  A    between atoms: _98  and  _99
REMARK   48  A    between atoms: _104  and  _106
REMARK   49  A    between atoms: _106  and  _107
REMARK   50  A    between atoms: _106  and  _109
REMARK   51  A    between atoms: _112  and  _114
REMARK   52  A    between atoms: _114  and  _115
REMARK   53  A    between atoms: _114  and  _117
REMARK   54  A    between atoms: _117  and  _118
REMARK   55  A    between atoms: _124  and  _126
REMARK   56  A    between atoms: _126  and  _127
REMARK   57  A    between atoms: _126  and  _129
REMARK   58  A    between atoms: _129  and  _130
REMARK   59  A    between atoms: _132  and  _134
REMARK   60  A    between atoms: _134  and  _135
REMARK   61  A    between atoms: _134  and  _137
REMARK   62  A    between atoms: _137  and  _138
REMARK   63  A    between atoms: _141  and  _143
REMARK   64  A    between atoms: _143  and  _144
REMARK   65  A    between atoms: _147  and  _149
REMARK   66  A    between atoms: _149  and  _150
REMARK   67  A    between atoms: _149  and  _152
REMARK   68  A    between atoms: _152  and  _153
REMARK   69  A    between atoms: _153  and  _154
REMARK   70  A    between atoms: _157  and  _159
REMARK   71  A    between atoms: _159  and  _160
REMARK   72  A    between atoms: _159  and  _162
REMARK   73  A    between atoms: _162  and  _163
REMARK   74  A    between atoms: _166  and  _168
REMARK   75  A    between atoms: _168  and  _169
REMARK   76  A    between atoms: _168  and  _171
REMARK   77  A    between atoms: _171  and  _172
REMARK   78  A    between atoms: _177  and  _179
REMARK   79  A    between atoms: _179  and  _180
REMARK   80  A    between atoms: _179  and  _182
REMARK   81  A    between atoms: _182  and  _183
REMARK   82  A    between atoms: _183  and  _184
REMARK   83  A    between atoms: _189  and  _191
REMARK   84  A    between atoms: _191  and  _192
REMARK   85  A    between atoms: _191  and  _194
REMARK   86  A    between atoms: _194  and  _195
REMARK   87  A    between atoms: _197  and  _199
REMARK   88  A    between atoms: _199  and  _200
REMARK   89  A    between atoms: _203  and  _205
REMARK   90  A    between atoms: _205  and  _206
REMARK   91  A    between atoms: _205  and  _208
REMARK   92  A    between atoms: _211  and  _213
REMARK   93  A    between atoms: _213  and  _214
REMARK   94  A    between atoms: _213  and  _216
REMARK   95  A    between atoms: _216  and  _217
REMARK   96  A    between atoms: _220  and  _222
REMARK   97  A    between atoms: _222  and  _223
REMARK   98  A    between atoms: _222  and  _225
REMARK   99  A    between atoms: _225  and  _226
REMARK  100  A    between atoms: _229  and  _231
REMARK  101  A    between atoms: _231  and  _232
REMARK  102  A    between atoms: _231  and  _234
REMARK  103  A    between atoms: _234  and  _235
REMARK  104  A    between atoms: _240  and  _242
REMARK  105  A    between atoms: _242  and  _243
REMARK  106  A    between atoms: _246  and  _248
REMARK  107  A    between atoms: _248  and  _249
REMARK  108  A    between atoms: _248  and  _251
REMARK  109  A    between atoms: _251  and  _252
REMARK  110  A    between atoms: _252  and  _253
REMARK  111  A    between atoms: _258  and  _260
REMARK  112  A    between atoms: _260  and  _261
REMARK  113  A    between atoms: _260  and  _263
REMARK  114  A    between atoms: _263  and  _264
REMARK  115  A    between atoms: _270  and  _272
REMARK  116  A    between atoms: _272  and  _273
REMARK  117  A    between atoms: _272  and  _275
REMARK  118  A    between atoms: _275  and  _276
REMARK  119  A    between atoms: _281  and  _283
REMARK  120  A    between atoms: _283  and  _284
REMARK  121  A    between atoms: _283  and  _286
REMARK  122  A    between atoms: _286  and  _287
REMARK  123  A    between atoms: _290  and  _292
REMARK  124  A    between atoms: _292  and  _293
REMARK  125  A    between atoms: _292  and  _295
REMARK  126  A    between atoms: _295  and  _296
REMARK  127  A    between atoms: _299  and  _301
REMARK  128  A    between atoms: _301  and  _302
REMARK  129  A    between atoms: _304  and  _306
REMARK  130  A    between atoms: _306  and  _307
REMARK  131  A    between atoms: _306  and  _309
REMARK  132  A    between atoms: _309  and  _310
REMARK  133  A    between atoms: _313  and  _315
REMARK  134  A    between atoms: _315  and  _316
REMARK  135  A    between atoms: _315  and  _318
REMARK  136  A    between atoms: _318  and  _319
REMARK  137  A    between atoms: _319  and  _320
REMARK  138  A    between atoms: _320  and  _321
REMARK  139  A    between atoms: _330  and  _332
REMARK  140  A    between atoms: _332  and  _333
REMARK  141  A    between atoms: _335  and  _337
REMARK  142  A    between atoms: _337  and  _338
REMARK  143  A    between atoms: _337  and  _340
REMARK  144  A    between atoms: _340  and  _341
REMARK  145  A    between atoms: _341  and  _342
REMARK  146  A    between atoms: _345  and  _346
REMARK  147  A    between atoms: _351  and  _353
REMARK  148  A    between atoms: _353  and  _354
REMARK  149  A    between atoms: _353  and  _356
REMARK  150  A    between atoms: _356  and  _357
REMARK  151  A    between atoms: _357  and  _358
REMARK  152  A    between atoms: _363  and  _365
REMARK  153  A    between atoms: _365  and  _366
REMARK  154  A    between atoms: _365  and  _368
REMARK  155  A    between atoms: _368  and  _369
REMARK  156  A    between atoms: _372  and  _374
REMARK  157  A    between atoms: _374  and  _375
REMARK  158  A    between atoms: _374  and  _377
REMARK  159  A    between atoms: _377  and  _378
REMARK  160  A    between atoms: _378  and  _379
REMARK  161  A    between atoms: _382  and  _384
REMARK  162  A    between atoms: _384  and  _385
REMARK  163  A    between atoms: _384  and  _387
REMARK  164  A    between atoms: _390  and  _392
REMARK  165  A    between atoms: _392  and  _393
REMARK  166  A    between atoms: _392  and  _395
REMARK  167  A    between atoms: _395  and  _396
REMARK  168  A    between atoms: _398  and  _400
REMARK  169  A    between atoms: _400  and  _401
REMARK  170  A    between atoms: _404  and  _406
REMARK  171  A    between atoms: _406  and  _407
REMARK  172  A    between atoms: _406  and  _409
REMARK  173  A    between atoms: _410  and  _411
REMARK  174  A    between atoms: _412  and  _413
REMARK  175  A    between atoms: _417  and  _419
REMARK  176  A    between atoms: _419  and  _420
REMARK  177  A    between atoms: _419  and  _422
REMARK  178  A    between atoms: _422  and  _423
REMARK  179  A    between atoms: _428  and  _430
REMARK  180  A    between atoms: _430  and  _431
REMARK  181  A    between atoms: _430  and  _433
REMARK  182  A    between atoms: _433  and  _434
REMARK  183  A    between atoms: _437  and  _439
REMARK  184  A    between atoms: _439  and  _440
REMARK  185  A    between atoms: _439  and  _442
REMARK  186  A    between atoms: _442  and  _443
REMARK  187  A    between atoms: _448  and  _450
REMARK  188  A    between atoms: _450  and  _451
REMARK  189  A    between atoms: _450  and  _453
REMARK  190  A    between atoms: _453  and  _454
REMARK  191  A    between atoms: _454  and  _455
REMARK  192  A    between atoms: _455  and  _456
REMARK  193  A    between atoms: _465  and  _467
REMARK  194  A    between atoms: _467  and  _468
REMARK  195  A    between atoms: _467  and  _470
REMARK  196  A    between atoms: _470  and  _471
REMARK  197  A    between atoms: _471  and  _472
REMARK  198  A    between atoms: _475  and  _477
REMARK  199  A    between atoms: _477  and  _478
REMARK  200  A    between atoms: _477  and  _480
REMARK  201  A    between atoms: _483  and  _485
REMARK  202  A    between atoms: _485  and  _486
REMARK  203  A    between atoms: _485  and  _488
REMARK  204  A    between atoms: _488  and  _489
REMARK  205  A    between atoms: _489  and  _490
REMARK  206  A    between atoms: _495  and  _497
REMARK  207  A    between atoms: _497  and  _498
REMARK  208  A    between atoms: _497  and  _500
REMARK  209  A    between atoms: _500  and  _501
REMARK  210  A    between atoms: _504  and  _506
REMARK  211  A    between atoms: _506  and  _507
REMARK  212  A    between atoms: _506  and  _509
REMARK  213  A    between atoms: _509  and  _510
REMARK  214  A    between atoms: _515  and  _517
REMARK  215  A    between atoms: _517  and  _518
REMARK  216  A    between atoms: _517  and  _520
REMARK  217  A    between atoms: _520  and  _521
REMARK  218  A    between atoms: _521  and  _522
REMARK  219  A    between atoms: _527  and  _529
REMARK  220  A    between atoms: _529  and  _530
REMARK  221  A    between atoms: _532  and  _534
REMARK  222  A    between atoms: _534  and  _535
REMARK  223  A    between atoms: _534  and  _537
REMARK  224  A    between atoms: _537  and  _538
REMARK  225  A    between atoms: _543  and  _545
REMARK  226  A    between atoms: _545  and  _546
REMARK  227  A    between atoms: _545  and  _548
REMARK  228  A    between atoms: _548  and  _549
REMARK  229  A    between atoms: _552  and  _554
REMARK  230  A    between atoms: _554  and  _555
REMARK  231  A    between atoms: _554  and  _557
REMARK  232  A    between atoms: _557  and  _558
REMARK  233  A    between atoms: _560  and  _562
REMARK  234  A    between atoms: _562  and  _563
REMARK  235  A    between atoms: _562  and  _565
REMARK  236  A    between atoms: _565  and  _566
REMARK  237  A    between atoms: _566  and  _567
REMARK                            x       y       z     vdW  Elec       q    Type
REMARK                         _______ _______ _______ _____ _____    ______ ____
ROOT
ATOM      1  O   HOH     1      49.959  91.261  29.850  0.00  0.00    +0.000 OA
ENDROOT
TORSDOF 0
REMARK  Name = ../refined-set-2016/4ezz/4ezz_pocket.pdb
REMARK  237 active torsions:
REMARK  status: ('A' for Active; 'I' for Inactive)
REMARK    1  A    between atoms: _1  and  _3
REMARK    2  A    between atoms: _3  and  _4
REMARK    3  A    between atoms: _3  and  _6
REMARK    4  A    between atoms: _6  and  _7
REMARK    5  A    between atoms: _10  and  _12
REMARK    6  A    between atoms: _12  and  _13
REMARK    7  A    between atoms: _12  and  _15
REMARK    8  A    between atoms: _15  and  _16
REMARK    9  A    between atoms: _16  and  _17
REMARK   10  A    between atoms: _20  and  _22
REMARK   11  A    between atoms: _22  and  _23
REMARK   12  A    between atoms: _22  and  _25
REMARK   13  A    between atoms: _25  and  _26
REMARK   14  A    between atoms: _29  and  _31
REMARK   15  A    between atoms: _31  and  _32
REMARK   16  A    between atoms: _31  and  _34
REMARK   17  A    between atoms: _34  and  _35
REMARK   18  A    between atoms: _35  and  _36
REMARK   19  A    between atoms: _38  and  _40
REMARK   20  A    between atoms: _40  and  _41
REMARK   21  A    between atoms: _43  and  _45
REMARK   22  A    between atoms: _45  and  _46
REMARK   23  A    between atoms: _48  and  _50
REMARK   24  A    between atoms: _50  and  _51
REMARK   25  A    between atoms: _50  and  _53
REMARK   26  A    between atoms: _56  and  _58
REMARK   27  A    between atoms: _58  and  _59
REMARK   28  A    between atoms: _58  and  _61
REMARK   29  A    between atoms: _61  and  _62
REMARK   30  A    between atoms: _62  and  _63
REMARK   31  A    between atoms: _65  and  _67
REMARK   32  A    between atoms: _67  and  _68
REMARK   33  A    between atoms: _67  and  _70
REMARK   34  A    between atoms: _70  and  _71
REMARK   35  A    between atoms: _74  and  _76
REMARK   36  A    between atoms: _76  and  _77
REMARK   37  A    between atoms: _76  and  _79
REMARK   38  A    between atoms: _79  and  _80
REMARK   39  A    between atoms: _83  and  _85
REMARK   40  A    between atoms: _85  and  _86
REMARK   41  A    between atoms: _85  and  _88
REMARK   42  A    between atoms: _88  and  _89
REMARK   43  A    between atoms: _92  and  _94
REMARK   44  A    between atoms: _94  and  _95
REMARK   45  A    between atoms: _94  and  _97
REMARK   46  A    between atoms: _97  and  _98
REMARK   47  A    between atoms: _98  and  _99
REMARK   48  A    between atoms: _104  and  _106
REMARK   49  A    between atoms: _106  and  _107
REMARK   50  A    between atoms: _106  and  _109
REMARK   51  A    between atoms: _112  and  _114
REMARK   52  A    between atoms: _114  and  _115
REMARK   53  A    between atoms: _114  and  _117
REMARK   54  A    between atoms: _117  and  _118
REMARK   55  A    between atoms: _124  and  _126
REMARK   56  A    between atoms: _126  and  _127
REMARK   57  A    between atoms: _126  and  _129
REMARK   58  A    between atoms: _129  and  _130
REMARK   59  A    between atoms: _132  and  _134
REMARK   60  A    between atoms: _134  and  _135
REMARK   61  A    between atoms: _134  and  _137
REMARK   62  A    between atoms: _137  and  _138
REMARK   63  A    between atoms: _141  and  _143
REMARK   64  A    between atoms: _143  and  _144
REMARK   65  A    between atoms: _147  and  _149
REMARK   66  A    between atoms: _149  and  _150
REMARK   67  A    between atoms: _149  and  _152
REMARK   68  A    between atoms: _152  and  _153
REMARK   69  A    between atoms: _153  and  _154
REMARK   70  A    between atoms: _157  and  _159
REMARK   71  A    between atoms: _159  and  _160
REMARK   72  A    between atoms: _159  and  _162
REMARK   73  A    between atoms: _162  and  _163
REMARK   74  A    between atoms: _166  and  _168
REMARK   75  A    between atoms: _168  and  _169
REMARK   76  A    between atoms: _168  and  _171
REMARK   77  A    between atoms: _171  and  _172
REMARK   78  A    between atoms: _177  and  _179
REMARK   79  A    between atoms: _179  and  _180
REMARK   80  A    between atoms: _179  and  _182
REMARK   81  A    between atoms: _182  and  _183
REMARK   82  A    between atoms: _183  and  _184
REMARK   83  A    between atoms: _189  and  _191
REMARK   84  A    between atoms: _191  and  _192
REMARK   85  A    between atoms: _191  and  _194
REMARK   86  A    between atoms: _194  and  _195
REMARK   87  A    between atoms: _197  and  _199
REMARK   88  A    between atoms: _199  and  _200
REMARK   89  A    between atoms: _203  and  _205
REMARK   90  A    between atoms: _205  and  _206
REMARK   91  A    between atoms: _205  and  _208
REMARK   92  A    between atoms: _211  and  _213
REMARK   93  A    between atoms: _213  and  _214
REMARK   94  A    between atoms: _213  and  _216
REMARK   95  A    between atoms: _216  and  _217
REMARK   96  A    between atoms: _220  and  _222
REMARK   97  A    between atoms: _222  and  _223
REMARK   98  A    between atoms: _222  and  _225
REMARK   99  A    between atoms: _225  and  _226
REMARK  100  A    between atoms: _229  and  _231
REMARK  101  A    between atoms: _231  and  _232
REMARK  102  A    between atoms: _231  and  _234
REMARK  103  A    between atoms: _234  and  _235
REMARK  104  A    between atoms: _240  and  _242
REMARK  105  A    between atoms: _242  and  _243
REMARK  106  A    between atoms: _246  and  _248
REMARK  107  A    between atoms: _248  and  _249
REMARK  108  A    between atoms: _248  and  _251
REMARK  109  A    between atoms: _251  and  _252
REMARK  110  A    between atoms: _252  and  _253
REMARK  111  A    between atoms: _258  and  _260
REMARK  112  A    between atoms: _260  and  _261
REMARK  113  A    between atoms: _260  and  _263
REMARK  114  A    between atoms: _263  and  _264
REMARK  115  A    between atoms: _270  and  _272
REMARK  116  A    between atoms: _272  and  _273
REMARK  117  A    between atoms: _272  and  _275
REMARK  118  A    between atoms: _275  and  _276
REMARK  119  A    between atoms: _281  and  _283
REMARK  120  A    between atoms: _283  and  _284
REMARK  121  A    between atoms: _283  and  _286
REMARK  122  A    between atoms: _286  and  _287
REMARK  123  A    between atoms: _290  and  _292
REMARK  124  A    between atoms: _292  and  _293
REMARK  125  A    between atoms: _292  and  _295
REMARK  126  A    between atoms: _295  and  _296
REMARK  127  A    between atoms: _299  and  _301
REMARK  128  A    between atoms: _301  and  _302
REMARK  129  A    between atoms: _304  and  _306
REMARK  130  A    between atoms: _306  and  _307
REMARK  131  A    between atoms: _306  and  _309
REMARK  132  A    between atoms: _309  and  _310
REMARK  133  A    between atoms: _313  and  _315
REMARK  134  A    between atoms: _315  and  _316
REMARK  135  A    between atoms: _315  and  _318
REMARK  136  A    between atoms: _318  and  _319
REMARK  137  A    between atoms: _319  and  _320
REMARK  138  A    between atoms: _320  and  _321
REMARK  139  A    between atoms: _330  and  _332
REMARK  140  A    between atoms: _332  and  _333
REMARK  141  A    between atoms: _335  and  _337
REMARK  142  A    between atoms: _337  and  _338
REMARK  143  A    between atoms: _337  and  _340
REMARK  144  A    between atoms: _340  and  _341
REMARK  145  A    between atoms: _341  and  _342
REMARK  146  A    between atoms: _345  and  _346
REMARK  147  A    between atoms: _351  and  _353
REMARK  148  A    between atoms: _353  and  _354
REMARK  149  A    between atoms: _353  and  _356
REMARK  150  A    between atoms: _356  and  _357
REMARK  151  A    between atoms: _357  and  _358
REMARK  152  A    between atoms: _363  and  _365
REMARK  153  A    between atoms: _365  and  _366
REMARK  154  A    between atoms: _365  and  _368
REMARK  155  A    between atoms: _368  and  _369
REMARK  156  A    between atoms: _372  and  _374
REMARK  157  A    between atoms: _374  and  _375
REMARK  158  A    between atoms: _374  and  _377
REMARK  159  A    between atoms: _377  and  _378
REMARK  160  A    between atoms: _378  and  _379
REMARK  161  A    between atoms: _382  and  _384
REMARK  162  A    between atoms: _384  and  _385
REMARK  163  A    between atoms: _384  and  _387
REMARK  164  A    between atoms: _390  and  _392
REMARK  165  A    between atoms: _392  and  _393
REMARK  166  A    between atoms: _392  and  _395
REMARK  167  A    between atoms: _395  and  _396
REMARK  168  A    between atoms: _398  and  _400
REMARK  169  A    between atoms: _400  and  _401
REMARK  170  A    between atoms: _404  and  _406
REMARK  171  A    between atoms: _406  and  _407
REMARK  172  A    between atoms: _406  and  _409
REMARK  173  A    between atoms: _410  and  _411
REMARK  174  A    between atoms: _412  and  _413
REMARK  175  A    between atoms: _417  and  _419
REMARK  176  A    between atoms: _419  and  _420
REMARK  177  A    between atoms: _419  and  _422
REMARK  178  A    between atoms: _422  and  _423
REMARK  179  A    between atoms: _428  and  _430
REMARK  180  A    between atoms: _430  and  _431
REMARK  181  A    between atoms: _430  and  _433
REMARK  182  A    between atoms: _433  and  _434
REMARK  183  A    between atoms: _437  and  _439
REMARK  184  A    between atoms: _439  and  _440
REMARK  185  A    between atoms: _439  and  _442
REMARK  186  A    between atoms: _442  and  _443
REMARK  187  A    between atoms: _448  and  _450
REMARK  188  A    between atoms: _450  and  _451
REMARK  189  A    between atoms: _450  and  _453
REMARK  190  A    between atoms: _453  and  _454
REMARK  191  A    between atoms: _454  and  _455
REMARK  192  A    between atoms: _455  and  _456
REMARK  193  A    between atoms: _465  and  _467
REMARK  194  A    between atoms: _467  and  _468
REMARK  195  A    between atoms: _467  and  _470
REMARK  196  A    between atoms: _470  and  _471
REMARK  197  A    between atoms: _471  and  _472
REMARK  198  A    between atoms: _475  and  _477
REMARK  199  A    between atoms: _477  and  _478
REMARK  200  A    between atoms: _477  and  _480
REMARK  201  A    between atoms: _483  and  _485
REMARK  202  A    between atoms: _485  and  _486
REMARK  203  A    between atoms: _485  and  _488
REMARK  204  A    between atoms: _488  and  _489
REMARK  205  A    between atoms: _489  and  _490
REMARK  206  A    between atoms: _495  and  _497
REMARK  207  A    between atoms: _497  and  _498
REMARK  208  A    between atoms: _497  and  _500
REMARK  209  A    between atoms: _500  and  _501
REMARK  210  A    between atoms: _504  and  _506
REMARK  211  A    between atoms: _506  and  _507
REMARK  212  A    between atoms: _506  and  _509
REMARK  213  A    between atoms: _509  and  _510
REMARK  214  A    between atoms: _515  and  _517
REMARK  215  A    between atoms: _517  and  _518
REMARK  216  A    between atoms: _517  and  _520
REMARK  217  A    between atoms: _520  and  _521
REMARK  218  A    between atoms: _521  and  _522
REMARK  219  A    between atoms: _527  and  _529
REMARK  220  A    between atoms: _529  and  _530
REMARK  221  A    between atoms: _532  and  _534
REMARK  222  A    between atoms: _534  and  _535
REMARK  223  A    between atoms: _534  and  _537
REMARK  224  A    between atoms: _537  and  _538
REMARK  225  A    between atoms: _543  and  _545
REMARK  226  A    between atoms: _545  and  _546
REMARK  227  A    between atoms: _545  and  _548
REMARK  228  A    between atoms: _548  and  _549
REMARK  229  A    between atoms: _552  and  _554
REMARK  230  A    between atoms: _554  and  _555
REMARK  231  A    between atoms: _554  and  _557
REMARK  232  A    between atoms: _557  and  _558
REMARK  233  A    between atoms: _560  and  _562
REMARK  234  A    between atoms: _562  and  _563
REMARK  235  A    between atoms: _562  and  _565
REMARK  236  A    between atoms: _565  and  _566
REMARK  237  A    between atoms: _566  and  _567
REMARK                            x       y       z     vdW  Elec       q    Type
REMARK                         _______ _______ _______ _____ _____    ______ ____
ROOT
ATOM      1  O   HOH     1      59.712  76.182  30.714  0.00  0.00    +0.000 OA
ENDROOT
TORSDOF 0
REMARK  Name = ../refined-set-2016/4ezz/4ezz_pocket.pdb
REMARK  237 active torsions:
REMARK  status: ('A' for Active; 'I' for Inactive)
REMARK    1  A    between atoms: _1  and  _3
REMARK    2  A    between atoms: _3  and  _4
REMARK    3  A    between atoms: _3  and  _6
REMARK    4  A    between atoms: _6  and  _7
REMARK    5  A    between atoms: _10  and  _12
REMARK    6  A    between atoms: _12  and  _13
REMARK    7  A    between atoms: _12  and  _15
REMARK    8  A    between atoms: _15  and  _16
REMARK    9  A    between atoms: _16  and  _17
REMARK   10  A    between atoms: _20  and  _22
REMARK   11  A    between atoms: _22  and  _23
REMARK   12  A    between atoms: _22  and  _25
REMARK   13  A    between atoms: _25  and  _26
REMARK   14  A    between atoms: _29  and  _31
REMARK   15  A    between atoms: _31  and  _32
REMARK   16  A    between atoms: _31  and  _34
REMARK   17  A    between atoms: _34  and  _35
REMARK   18  A    between atoms: _35  and  _36
REMARK   19  A    between atoms: _38  and  _40
REMARK   20  A    between atoms: _40  and  _41
REMARK   21  A    between atoms: _43  and  _45
REMARK   22  A    between atoms: _45  and  _46
REMARK   23  A    between atoms: _48  and  _50
REMARK   24  A    between atoms: _50  and  _51
REMARK   25  A    between atoms: _50  and  _53
REMARK   26  A    between atoms: _56  and  _58
REMARK   27  A    between atoms: _58  and  _59
REMARK   28  A    between atoms: _58  and  _61
REMARK   29  A    between atoms: _61  and  _62
REMARK   30  A    between atoms: _62  and  _63
REMARK   31  A    between atoms: _65  and  _67
REMARK   32  A    between atoms: _67  and  _68
REMARK   33  A    between atoms: _67  and  _70
REMARK   34  A    between atoms: _70  and  _71
REMARK   35  A    between atoms: _74  and  _76
REMARK   36  A    between atoms: _76  and  _77
REMARK   37  A    between atoms: _76  and  _79
REMARK   38  A    between atoms: _79  and  _80
REMARK   39  A    between atoms: _83  and  _85
REMARK   40  A    between atoms: _85  and  _86
REMARK   41  A    between atoms: _85  and  _88
REMARK   42  A    between atoms: _88  and  _89
REMARK   43  A    between atoms: _92  and  _94
REMARK   44  A    between atoms: _94  and  _95
REMARK   45  A    between atoms: _94  and  _97
REMARK   46  A    between atoms: _97  and  _98
REMARK   47  A    between atoms: _98  and  _99
REMARK   48  A    between atoms: _104  and  _106
REMARK   49  A    between atoms: _106  and  _107
REMARK   50  A    between atoms: _106  and  _109
REMARK   51  A    between atoms: _112  and  _114
REMARK   52  A    between atoms: _114  and  _115
REMARK   53  A    between atoms: _114  and  _117
REMARK   54  A    between atoms: _117  and  _118
REMARK   55  A    between atoms: _124  and  _126
REMARK   56  A    between atoms: _126  and  _127
REMARK   57  A    between atoms: _126  and  _129
REMARK   58  A    between atoms: _129  and  _130
REMARK   59  A    between atoms: _132  and  _134
REMARK   60  A    between atoms: _134  and  _135
REMARK   61  A    between atoms: _134  and  _137
REMARK   62  A    between atoms: _137  and  _138
REMARK   63  A    between atoms: _141  and  _143
REMARK   64  A    between atoms: _143  and  _144
REMARK   65  A    between atoms: _147  and  _149
REMARK   66  A    between atoms: _149  and  _150
REMARK   67  A    between atoms: _149  and  _152
REMARK   68  A    between atoms: _152  and  _153
REMARK   69  A    between atoms: _153  and  _154
REMARK   70  A    between atoms: _157  and  _159
REMARK   71  A    between atoms: _159  and  _160
REMARK   72  A    between atoms: _159  and  _162
REMARK   73  A    between atoms: _162  and  _163
REMARK   74  A    between atoms: _166  and  _168
REMARK   75  A    between atoms: _168  and  _169
REMARK   76  A    between atoms: _168  and  _171
REMARK   77  A    between atoms: _171  and  _172
REMARK   78  A    between atoms: _177  and  _179
REMARK   79  A    between atoms: _179  and  _180
REMARK   80  A    between atoms: _179  and  _182
REMARK   81  A    between atoms: _182  and  _183
REMARK   82  A    between atoms: _183  and  _184
REMARK   83  A    between atoms: _189  and  _191
REMARK   84  A    between atoms: _191  and  _192
REMARK   85  A    between atoms: _191  and  _194
REMARK   86  A    between atoms: _194  and  _195
REMARK   87  A    between atoms: _197  and  _199
REMARK   88  A    between atoms: _199  and  _200
REMARK   89  A    between atoms: _203  and  _205
REMARK   90  A    between atoms: _205  and  _206
REMARK   91  A    between atoms: _205  and  _208
REMARK   92  A    between atoms: _211  and  _213
REMARK   93  A    between atoms: _213  and  _214
REMARK   94  A    between atoms: _213  and  _216
REMARK   95  A    between atoms: _216  and  _217
REMARK   96  A    between atoms: _220  and  _222
REMARK   97  A    between atoms: _222  and  _223
REMARK   98  A    between atoms: _222  and  _225
REMARK   99  A    between atoms: _225  and  _226
REMARK  100  A    between atoms: _229  and  _231
REMARK  101  A    between atoms: _231  and  _232
REMARK  102  A    between atoms: _231  and  _234
REMARK  103  A    between atoms: _234  and  _235
REMARK  104  A    between atoms: _240  and  _242
REMARK  105  A    between atoms: _242  and  _243
REMARK  106  A    between atoms: _246  and  _248
REMARK  107  A    between atoms: _248  and  _249
REMARK  108  A    between atoms: _248  and  _251
REMARK  109  A    between atoms: _251  and  _252
REMARK  110  A    between atoms: _252  and  _253
REMARK  111  A    between atoms: _258  and  _260
REMARK  112  A    between atoms: _260  and  _261
REMARK  113  A    between atoms: _260  and  _263
REMARK  114  A    between atoms: _263  and  _264
REMARK  115  A    between atoms: _270  and  _272
REMARK  116  A    between atoms: _272  and  _273
REMARK  117  A    between atoms: _272  and  _275
REMARK  118  A    between atoms: _275  and  _276
REMARK  119  A    between atoms: _281  and  _283
REMARK  120  A    between atoms: _283  and  _284
REMARK  121  A    between atoms: _283  and  _286
REMARK  122  A    between atoms: _286  and  _287
REMARK  123  A    between atoms: _290  and  _292
REMARK  124  A    between atoms: _292  and  _293
REMARK  125  A    between atoms: _292  and  _295
REMARK  126  A    between atoms: _295  and  _296
REMARK  127  A    between atoms: _299  and  _301
REMARK  128  A    between atoms: _301  and  _302
REMARK  129  A    between atoms: _304  and  _306
REMARK  130  A    between atoms: _306  and  _307
REMARK  131  A    between atoms: _306  and  _309
REMARK  132  A    between atoms: _309  and  _310
REMARK  133  A    between atoms: _313  and  _315
REMARK  134  A    between atoms: _315  and  _316
REMARK  135  A    between atoms: _315  and  _318
REMARK  136  A    between atoms: _318  and  _319
REMARK  137  A    between atoms: _319  and  _320
REMARK  138  A    between atoms: _320  and  _321
REMARK  139  A    between atoms: _330  and  _332
REMARK  140  A    between atoms: _332  and  _333
REMARK  141  A    between atoms: _335  and  _337
REMARK  142  A    between atoms: _337  and  _338
REMARK  143  A    between atoms: _337  and  _340
REMARK  144  A    between atoms: _340  and  _341
REMARK  145  A    between atoms: _341  and  _342
REMARK  146  A    between atoms: _345  and  _346
REMARK  147  A    between atoms: _351  and  _353
REMARK  148  A    between atoms: _353  and  _354
REMARK  149  A    between atoms: _353  and  _356
REMARK  150  A    between atoms: _356  and  _357
REMARK  151  A    between atoms: _357  and  _358
REMARK  152  A    between atoms: _363  and  _365
REMARK  153  A    between atoms: _365  and  _366
REMARK  154  A    between atoms: _365  and  _368
REMARK  155  A    between atoms: _368  and  _369
REMARK  156  A    between atoms: _372  and  _374
REMARK  157  A    between atoms: _374  and  _375
REMARK  158  A    between atoms: _374  and  _377
REMARK  159  A    between atoms: _377  and  _378
REMARK  160  A    between atoms: _378  and  _379
REMARK  161  A    between atoms: _382  and  _384
REMARK  162  A    between atoms: _384  and  _385
REMARK  163  A    between atoms: _384  and  _387
REMARK  164  A    between atoms: _390  and  _392
REMARK  165  A    between atoms: _392  and  _393
REMARK  166  A    between atoms: _392  and  _395
REMARK  167  A    between atoms: _395  and  _396
REMARK  168  A    between atoms: _398  and  _400
REMARK  169  A    between atoms: _400  and  _401
REMARK  170  A    between atoms: _404  and  _406
REMARK  171  A    between atoms: _406  and  _407
REMARK  172  A    between atoms: _406  and  _409
REMARK  173  A    between atoms: _410  and  _411
REMARK  174  A    between atoms: _412  and  _413
REMARK  175  A    between atoms: _417  and  _419
REMARK  176  A    between atoms: _419  and  _420
REMARK  177  A    between atoms: _419  and  _422
REMARK  178  A    between atoms: _422  and  _423
REMARK  179  A    between atoms: _428  and  _430
REMARK  180  A    between atoms: _430  and  _431
REMARK  181  A    between atoms: _430  and  _433
REMARK  182  A    between atoms: _433  and  _434
REMARK  183  A    between atoms: _437  and  _439
REMARK  184  A    between atoms: _439  and  _440
REMARK  185  A    between atoms: _439  and  _442
REMARK  186  A    between atoms: _442  and  _443
REMARK  187  A    between atoms: _448  and  _450
REMARK  188  A    between atoms: _450  and  _451
REMARK  189  A    between atoms: _450  and  _453
REMARK  190  A    between atoms: _453  and  _454
REMARK  191  A    between atoms: _454  and  _455
REMARK  192  A    between atoms: _455  and  _456
REMARK  193  A    between atoms: _465  and  _467
REMARK  194  A    between atoms: _467  and  _468
REMARK  195  A    between atoms: _467  and  _470
REMARK  196  A    between atoms: _470  and  _471
REMARK  197  A    between atoms: _471  and  _472
REMARK  198  A    between atoms: _475  and  _477
REMARK  199  A    between atoms: _477  and  _478
REMARK  200  A    between atoms: _477  and  _480
REMARK  201  A    between atoms: _483  and  _485
REMARK  202  A    between atoms: _485  and  _486
REMARK  203  A    between atoms: _485  and  _488
REMARK  204  A    between atoms: _488  and  _489
REMARK  205  A    between atoms: _489  and  _490
REMARK  206  A    between atoms: _495  and  _497
REMARK  207  A    between atoms: _497  and  _498
REMARK  208  A    between atoms: _497  and  _500
REMARK  209  A    between atoms: _500  and  _501
REMARK  210  A    between atoms: _504  and  _506
REMARK  211  A    between atoms: _506  and  _507
REMARK  212  A    between atoms: _506  and  _509
REMARK  213  A    between atoms: _509  and  _510
REMARK  214  A    between atoms: _515  and  _517
REMARK  215  A    between atoms: _517  and  _518
REMARK  216  A    between atoms: _517  and  _520
REMARK  217  A    between atoms: _520  and  _521
REMARK  218  A    between atoms: _521  and  _522
REMARK  219  A    between atoms: _527  and  _529
REMARK  220  A    between atoms: _529  and  _530
REMARK  221  A    between atoms: _532  and  _534
REMARK  222  A    between atoms: _534  and  _535
REMARK  223  A    between atoms: _534  and  _537
REMARK  224  A    between atoms: _537  and  _538
REMARK  225  A    between atoms: _543  and  _545
REMARK  226  A    between atoms: _545  and  _546
REMARK  227  A    between atoms: _545  and  _548
REMARK  228  A    between atoms: _548  and  _549
REMARK  229  A    between atoms: _552  and  _554
REMARK  230  A    between atoms: _554  and  _555
REMARK  231  A    between atoms: _554  and  _557
REMARK  232  A    between atoms: _557  and  _558
REMARK  233  A    between atoms: _560  and  _562
REMARK  234  A    between atoms: _562  and  _563
REMARK  235  A    between atoms: _562  and  _565
REMARK  236  A    between atoms: _565  and  _566
REMARK  237  A    between atoms: _566  and  _567
REMARK                            x       y       z     vdW  Elec       q    Type
REMARK                         _______ _______ _______ _____ _____    ______ ____
ROOT
ATOM      1  O   HOH     1      55.019  92.565  43.477  0.00  0.00    +0.000 OA
ENDROOT
TORSDOF 0
