REMARK  Name = ../refined-set-2016/2vvc/2vvc_pocket.pdb
REMARK  225 active torsions:
REMARK  status: ('A' for Active; 'I' for Inactive)
REMARK    1  A    between atoms: _1  and  _5
REMARK    2  A    between atoms: _5  and  _6
REMARK    3  A    between atoms: _5  and  _8
REMARK    4  A    between atoms: _8  and  _9
REMARK    5  A    between atoms: _12  and  _14
REMARK    6  A    between atoms: _14  and  _15
REMARK    7  A    between atoms: _14  and  _17
REMARK    8  A    between atoms: _20  and  _22
REMARK    9  A    between atoms: _22  and  _23
REMARK   10  A    between atoms: _22  and  _25
REMARK   11  A    between atoms: _25  and  _26
REMARK   12  A    between atoms: _31  and  _33
REMARK   13  A    between atoms: _33  and  _34
REMARK   14  A    between atoms: _33  and  _36
REMARK   15  A    between atoms: _36  and  _37
REMARK   16  A    between atoms: _37  and  _38
REMARK   17  A    between atoms: _43  and  _45
REMARK   18  A    between atoms: _45  and  _46
REMARK   19  A    between atoms: _45  and  _48
REMARK   20  A    between atoms: _48  and  _49
REMARK   21  A    between atoms: _55  and  _57
REMARK   22  A    between atoms: _57  and  _58
REMARK   23  A    between atoms: _57  and  _60
REMARK   24  A    between atoms: _60  and  _61
REMARK   25  A    between atoms: _64  and  _66
REMARK   26  A    between atoms: _66  and  _67
REMARK   27  A    between atoms: _66  and  _69
REMARK   28  A    between atoms: _69  and  _70
REMARK   29  A    between atoms: _70  and  _71
REMARK   30  A    between atoms: _71  and  _72
REMARK   31  A    between atoms: _72  and  _73
REMARK   32  A    between atoms: _77  and  _79
REMARK   33  A    between atoms: _79  and  _80
REMARK   34  A    between atoms: _79  and  _82
REMARK   35  A    between atoms: _82  and  _83
REMARK   36  A    between atoms: _83  and  _84
REMARK   37  A    between atoms: _87  and  _89
REMARK   38  A    between atoms: _89  and  _90
REMARK   39  A    between atoms: _89  and  _92
REMARK   40  A    between atoms: _92  and  _93
REMARK   41  A    between atoms: _96  and  _98
REMARK   42  A    between atoms: _98  and  _99
REMARK   43  A    between atoms: _98  and  _101
REMARK   44  A    between atoms: _101  and  _102
REMARK   45  A    between atoms: _107  and  _108
REMARK   46  A    between atoms: _110  and  _112
REMARK   47  A    between atoms: _112  and  _113
REMARK   48  A    between atoms: _112  and  _115
REMARK   49  A    between atoms: _115  and  _116
REMARK   50  A    between atoms: _119  and  _121
REMARK   51  A    between atoms: _121  and  _122
REMARK   52  A    between atoms: _121  and  _124
REMARK   53  A    between atoms: _124  and  _125
REMARK   54  A    between atoms: _128  and  _130
REMARK   55  A    between atoms: _130  and  _131
REMARK   56  A    between atoms: _130  and  _133
REMARK   57  A    between atoms: _136  and  _138
REMARK   58  A    between atoms: _138  and  _139
REMARK   59  A    between atoms: _138  and  _141
REMARK   60  A    between atoms: _141  and  _142
REMARK   61  A    between atoms: _142  and  _143
REMARK   62  A    between atoms: _143  and  _144
REMARK   63  A    between atoms: _153  and  _155
REMARK   64  A    between atoms: _155  and  _156
REMARK   65  A    between atoms: _155  and  _158
REMARK   66  A    between atoms: _158  and  _159
REMARK   67  A    between atoms: _164  and  _166
REMARK   68  A    between atoms: _166  and  _167
REMARK   69  A    between atoms: _166  and  _169
REMARK   70  A    between atoms: _169  and  _170
REMARK   71  A    between atoms: _170  and  _171
REMARK   72  A    between atoms: _174  and  _176
REMARK   73  A    between atoms: _176  and  _177
REMARK   74  A    between atoms: _176  and  _179
REMARK   75  A    between atoms: _179  and  _180
REMARK   76  A    between atoms: _180  and  _181
REMARK   77  A    between atoms: _181  and  _182
REMARK   78  A    between atoms: _182  and  _183
REMARK   79  A    between atoms: _187  and  _189
REMARK   80  A    between atoms: _189  and  _190
REMARK   81  A    between atoms: _192  and  _194
REMARK   82  A    between atoms: _194  and  _195
REMARK   83  A    between atoms: _194  and  _197
REMARK   84  A    between atoms: _200  and  _202
REMARK   85  A    between atoms: _202  and  _203
REMARK   86  A    between atoms: _202  and  _205
REMARK   87  A    between atoms: _205  and  _206
REMARK   88  A    between atoms: _208  and  _210
REMARK   89  A    between atoms: _210  and  _211
REMARK   90  A    between atoms: _210  and  _213
REMARK   91  A    between atoms: _213  and  _214
REMARK   92  A    between atoms: _216  and  _218
REMARK   93  A    between atoms: _218  and  _219
REMARK   94  A    between atoms: _218  and  _221
REMARK   95  A    between atoms: _221  and  _222
REMARK   96  A    between atoms: _228  and  _230
REMARK   97  A    between atoms: _230  and  _231
REMARK   98  A    between atoms: _230  and  _233
REMARK   99  A    between atoms: _233  and  _234
REMARK  100  A    between atoms: _237  and  _239
REMARK  101  A    between atoms: _239  and  _240
REMARK  102  A    between atoms: _239  and  _242
REMARK  103  A    between atoms: _242  and  _243
REMARK  104  A    between atoms: _246  and  _248
REMARK  105  A    between atoms: _248  and  _249
REMARK  106  A    between atoms: _248  and  _251
REMARK  107  A    between atoms: _251  and  _252
REMARK  108  A    between atoms: _255  and  _257
REMARK  109  A    between atoms: _257  and  _258
REMARK  110  A    between atoms: _257  and  _260
REMARK  111  A    between atoms: _260  and  _261
REMARK  112  A    between atoms: _261  and  _262
REMARK  113  A    between atoms: _264  and  _266
REMARK  114  A    between atoms: _266  and  _267
REMARK  115  A    between atoms: _266  and  _269
REMARK  116  A    between atoms: _269  and  _270
REMARK  117  A    between atoms: _276  and  _278
REMARK  118  A    between atoms: _278  and  _279
REMARK  119  A    between atoms: _278  and  _281
REMARK  120  A    between atoms: _283  and  _285
REMARK  121  A    between atoms: _285  and  _286
REMARK  122  A    between atoms: _289  and  _291
REMARK  123  A    between atoms: _291  and  _292
REMARK  124  A    between atoms: _294  and  _296
REMARK  125  A    between atoms: _296  and  _297
REMARK  126  A    between atoms: _296  and  _299
REMARK  127  A    between atoms: _299  and  _300
REMARK  128  A    between atoms: _300  and  _301
REMARK  129  A    between atoms: _304  and  _306
REMARK  130  A    between atoms: _306  and  _307
REMARK  131  A    between atoms: _306  and  _309
REMARK  132  A    between atoms: _309  and  _310
REMARK  133  A    between atoms: _313  and  _315
REMARK  134  A    between atoms: _315  and  _316
REMARK  135  A    between atoms: _319  and  _321
REMARK  136  A    between atoms: _321  and  _322
REMARK  137  A    between atoms: _321  and  _324
REMARK  138  A    between atoms: _324  and  _325
REMARK  139  A    between atoms: _325  and  _448
REMARK  140  A    between atoms: _326  and  _328
REMARK  141  A    between atoms: _328  and  _329
REMARK  142  A    between atoms: _328  and  _331
REMARK  143  A    between atoms: _331  and  _332
REMARK  144  A    between atoms: _332  and  _333
REMARK  145  A    between atoms: _338  and  _340
REMARK  146  A    between atoms: _340  and  _341
REMARK  147  A    between atoms: _343  and  _345
REMARK  148  A    between atoms: _345  and  _346
REMARK  149  A    between atoms: _345  and  _348
REMARK  150  A    between atoms: _348  and  _349
REMARK  151  A    between atoms: _352  and  _354
REMARK  152  A    between atoms: _354  and  _355
REMARK  153  A    between atoms: _354  and  _357
REMARK  154  A    between atoms: _357  and  _358
REMARK  155  A    between atoms: _360  and  _362
REMARK  156  A    between atoms: _362  and  _363
REMARK  157  A    between atoms: _365  and  _367
REMARK  158  A    between atoms: _367  and  _368
REMARK  159  A    between atoms: _370  and  _372
REMARK  160  A    between atoms: _372  and  _373
REMARK  161  A    between atoms: _372  and  _375
REMARK  162  A    between atoms: _375  and  _376
REMARK  163  A    between atoms: _381  and  _383
REMARK  164  A    between atoms: _383  and  _384
REMARK  165  A    between atoms: _383  and  _386
REMARK  166  A    between atoms: _386  and  _387
REMARK  167  A    between atoms: _390  and  _392
REMARK  168  A    between atoms: _392  and  _393
REMARK  169  A    between atoms: _392  and  _395
REMARK  170  A    between atoms: _398  and  _400
REMARK  171  A    between atoms: _400  and  _401
REMARK  172  A    between atoms: _400  and  _403
REMARK  173  A    between atoms: _403  and  _404
REMARK  174  A    between atoms: _406  and  _408
REMARK  175  A    between atoms: _408  and  _409
REMARK  176  A    between atoms: _408  and  _411
REMARK  177  A    between atoms: _411  and  _412
REMARK  178  A    between atoms: _422  and  _424
REMARK  179  A    between atoms: _424  and  _425
REMARK  180  A    between atoms: _427  and  _429
REMARK  181  A    between atoms: _429  and  _430
REMARK  182  A    between atoms: _429  and  _432
REMARK  183  A    between atoms: _432  and  _433
REMARK  184  A    between atoms: _433  and  _434
REMARK  185  A    between atoms: _437  and  _439
REMARK  186  A    between atoms: _439  and  _440
REMARK  187  A    between atoms: _442  and  _444
REMARK  188  A    between atoms: _444  and  _445
REMARK  189  A    between atoms: _444  and  _447
REMARK  190  A    between atoms: _447  and  _448
REMARK  191  A    between atoms: _449  and  _451
REMARK  192  A    between atoms: _451  and  _452
REMARK  193  A    between atoms: _455  and  _457
REMARK  194  A    between atoms: _457  and  _458
REMARK  195  A    between atoms: _457  and  _460
REMARK  196  A    between atoms: _460  and  _461
REMARK  197  A    between atoms: _461  and  _462
REMARK  198  A    between atoms: _462  and  _463
REMARK  199  A    between atoms: _472  and  _474
REMARK  200  A    between atoms: _474  and  _475
REMARK  201  A    between atoms: _474  and  _477
REMARK  202  A    between atoms: _477  and  _478
REMARK  203  A    between atoms: _478  and  _479
REMARK  204  A    between atoms: _479  and  _480
REMARK  205  A    between atoms: _480  and  _481
REMARK  206  A    between atoms: _485  and  _487
REMARK  207  A    between atoms: _487  and  _488
REMARK  208  A    between atoms: _487  and  _490
REMARK  209  A    between atoms: _490  and  _491
REMARK  210  A    between atoms: _496  and  _497
REMARK  211  A    between atoms: _499  and  _501
REMARK  212  A    between atoms: _501  and  _502
REMARK  213  A    between atoms: _504  and  _506
REMARK  214  A    between atoms: _506  and  _507
REMARK  215  A    between atoms: _506  and  _509
REMARK  216  A    between atoms: _509  and  _510
REMARK  217  A    between atoms: _513  and  _515
REMARK  218  A    between atoms: _515  and  _516
REMARK  219  A    between atoms: _515  and  _518
REMARK  220  A    between atoms: _518  and  _519
REMARK  221  A    between atoms: _524  and  _525
REMARK  222  A    between atoms: _527  and  _529
REMARK  223  A    between atoms: _529  and  _530
REMARK  224  A    between atoms: _529  and  _532
REMARK  225  A    between atoms: _532  and  _533
REMARK                            x       y       z     vdW  Elec       q    Type
REMARK                         _______ _______ _______ _____ _____    ______ ____
ROOT
ATOM      1  C   ILE A   1       9.244  -7.010  24.535  0.00  0.00    +0.202 C 
ATOM      2  N   VAL A   2      10.471  -7.135  25.039  0.00  0.00    -0.301 N 
ATOM      3  H   VAL A   2      10.737  -6.534  25.845  0.00  0.00    +0.150 HD
ATOM      4  O   ILE A   1       8.879  -7.603  23.498  0.00  0.00    -0.277 OA
ENDROOT
BRANCH   1   5
ATOM      5  CA  ILE A   1       8.309  -6.039  25.295  0.00  0.00    +0.013 C 
BRANCH   5   6
ATOM      6  N   ILE A   1       7.874  -4.910  24.429  0.00  0.00    +0.387 N 
ATOM      7  H1  ILE A   1       7.249  -4.280  24.971  0.00  0.00    -0.089 HD
ATOM      8  H2  ILE A   1       8.709  -4.380  24.108  0.00  0.00    -0.089 HD
ATOM      9  H3  ILE A   1       7.361  -5.284  23.605  0.00  0.00    -0.089 HD
ENDBRANCH   5   6
BRANCH   5  10
ATOM     10  CB  ILE A   1       7.084  -6.805  25.897  0.00  0.00    -0.011 C 
ATOM     11  CG2 ILE A   1       7.558  -8.027  26.709  0.00  0.00    -0.002 C 
BRANCH  10  12
ATOM     12  CG1 ILE A   1       6.186  -5.871  26.739  0.00  0.00    -0.002 C 
ATOM     13  CD1 ILE A   1       6.836  -5.326  28.031  0.00  0.00    -0.000 C 
ENDBRANCH  10  12
ENDBRANCH   5  10
ENDBRANCH   1   5
BRANCH   2  14
ATOM     14  CA  VAL A   2      11.458  -8.069  24.520  0.00  0.00    +0.137 C 
BRANCH  14  15
ATOM     15  CB  VAL A   2      12.879  -7.459  24.639  0.00  0.00    +0.026 C 
ATOM     16  CG2 VAL A   2      12.883  -6.012  24.127  0.00  0.00    +0.002 C 
ATOM     17  CG1 VAL A   2      13.921  -8.326  23.911  0.00  0.00    +0.002 C 
ENDBRANCH  14  15
BRANCH  14  18
ATOM     18  C   VAL A   2      11.381  -9.347  25.361  0.00  0.00    +0.227 C 
ATOM     19  O   VAL A   2      11.333  -9.260  26.585  0.00  0.00    -0.286 OA
ENDBRANCH  14  18
ENDBRANCH   2  14
TORSDOF 7
REMARK  Name = ../refined-set-2016/2vvc/2vvc_pocket.pdb
REMARK  225 active torsions:
REMARK  status: ('A' for Active; 'I' for Inactive)
REMARK    1  A    between atoms: _1  and  _5
REMARK    2  A    between atoms: _5  and  _6
REMARK    3  A    between atoms: _5  and  _8
REMARK    4  A    between atoms: _8  and  _9
REMARK    5  A    between atoms: _12  and  _14
REMARK    6  A    between atoms: _14  and  _15
REMARK    7  A    between atoms: _14  and  _17
REMARK    8  A    between atoms: _20  and  _22
REMARK    9  A    between atoms: _22  and  _23
REMARK   10  A    between atoms: _22  and  _25
REMARK   11  A    between atoms: _25  and  _26
REMARK   12  A    between atoms: _31  and  _33
REMARK   13  A    between atoms: _33  and  _34
REMARK   14  A    between atoms: _33  and  _36
REMARK   15  A    between atoms: _36  and  _37
REMARK   16  A    between atoms: _37  and  _38
REMARK   17  A    between atoms: _43  and  _45
REMARK   18  A    between atoms: _45  and  _46
REMARK   19  A    between atoms: _45  and  _48
REMARK   20  A    between atoms: _48  and  _49
REMARK   21  A    between atoms: _55  and  _57
REMARK   22  A    between atoms: _57  and  _58
REMARK   23  A    between atoms: _57  and  _60
REMARK   24  A    between atoms: _60  and  _61
REMARK   25  A    between atoms: _64  and  _66
REMARK   26  A    between atoms: _66  and  _67
REMARK   27  A    between atoms: _66  and  _69
REMARK   28  A    between atoms: _69  and  _70
REMARK   29  A    between atoms: _70  and  _71
REMARK   30  A    between atoms: _71  and  _72
REMARK   31  A    between atoms: _72  and  _73
REMARK   32  A    between atoms: _77  and  _79
REMARK   33  A    between atoms: _79  and  _80
REMARK   34  A    between atoms: _79  and  _82
REMARK   35  A    between atoms: _82  and  _83
REMARK   36  A    between atoms: _83  and  _84
REMARK   37  A    between atoms: _87  and  _89
REMARK   38  A    between atoms: _89  and  _90
REMARK   39  A    between atoms: _89  and  _92
REMARK   40  A    between atoms: _92  and  _93
REMARK   41  A    between atoms: _96  and  _98
REMARK   42  A    between atoms: _98  and  _99
REMARK   43  A    between atoms: _98  and  _101
REMARK   44  A    between atoms: _101  and  _102
REMARK   45  A    between atoms: _107  and  _108
REMARK   46  A    between atoms: _110  and  _112
REMARK   47  A    between atoms: _112  and  _113
REMARK   48  A    between atoms: _112  and  _115
REMARK   49  A    between atoms: _115  and  _116
REMARK   50  A    between atoms: _119  and  _121
REMARK   51  A    between atoms: _121  and  _122
REMARK   52  A    between atoms: _121  and  _124
REMARK   53  A    between atoms: _124  and  _125
REMARK   54  A    between atoms: _128  and  _130
REMARK   55  A    between atoms: _130  and  _131
REMARK   56  A    between atoms: _130  and  _133
REMARK   57  A    between atoms: _136  and  _138
REMARK   58  A    between atoms: _138  and  _139
REMARK   59  A    between atoms: _138  and  _141
REMARK   60  A    between atoms: _141  and  _142
REMARK   61  A    between atoms: _142  and  _143
REMARK   62  A    between atoms: _143  and  _144
REMARK   63  A    between atoms: _153  and  _155
REMARK   64  A    between atoms: _155  and  _156
REMARK   65  A    between atoms: _155  and  _158
REMARK   66  A    between atoms: _158  and  _159
REMARK   67  A    between atoms: _164  and  _166
REMARK   68  A    between atoms: _166  and  _167
REMARK   69  A    between atoms: _166  and  _169
REMARK   70  A    between atoms: _169  and  _170
REMARK   71  A    between atoms: _170  and  _171
REMARK   72  A    between atoms: _174  and  _176
REMARK   73  A    between atoms: _176  and  _177
REMARK   74  A    between atoms: _176  and  _179
REMARK   75  A    between atoms: _179  and  _180
REMARK   76  A    between atoms: _180  and  _181
REMARK   77  A    between atoms: _181  and  _182
REMARK   78  A    between atoms: _182  and  _183
REMARK   79  A    between atoms: _187  and  _189
REMARK   80  A    between atoms: _189  and  _190
REMARK   81  A    between atoms: _192  and  _194
REMARK   82  A    between atoms: _194  and  _195
REMARK   83  A    between atoms: _194  and  _197
REMARK   84  A    between atoms: _200  and  _202
REMARK   85  A    between atoms: _202  and  _203
REMARK   86  A    between atoms: _202  and  _205
REMARK   87  A    between atoms: _205  and  _206
REMARK   88  A    between atoms: _208  and  _210
REMARK   89  A    between atoms: _210  and  _211
REMARK   90  A    between atoms: _210  and  _213
REMARK   91  A    between atoms: _213  and  _214
REMARK   92  A    between atoms: _216  and  _218
REMARK   93  A    between atoms: _218  and  _219
REMARK   94  A    between atoms: _218  and  _221
REMARK   95  A    between atoms: _221  and  _222
REMARK   96  A    between atoms: _228  and  _230
REMARK   97  A    between atoms: _230  and  _231
REMARK   98  A    between atoms: _230  and  _233
REMARK   99  A    between atoms: _233  and  _234
REMARK  100  A    between atoms: _237  and  _239
REMARK  101  A    between atoms: _239  and  _240
REMARK  102  A    between atoms: _239  and  _242
REMARK  103  A    between atoms: _242  and  _243
REMARK  104  A    between atoms: _246  and  _248
REMARK  105  A    between atoms: _248  and  _249
REMARK  106  A    between atoms: _248  and  _251
REMARK  107  A    between atoms: _251  and  _252
REMARK  108  A    between atoms: _255  and  _257
REMARK  109  A    between atoms: _257  and  _258
REMARK  110  A    between atoms: _257  and  _260
REMARK  111  A    between atoms: _260  and  _261
REMARK  112  A    between atoms: _261  and  _262
REMARK  113  A    between atoms: _264  and  _266
REMARK  114  A    between atoms: _266  and  _267
REMARK  115  A    between atoms: _266  and  _269
REMARK  116  A    between atoms: _269  and  _270
REMARK  117  A    between atoms: _276  and  _278
REMARK  118  A    between atoms: _278  and  _279
REMARK  119  A    between atoms: _278  and  _281
REMARK  120  A    between atoms: _283  and  _285
REMARK  121  A    between atoms: _285  and  _286
REMARK  122  A    between atoms: _289  and  _291
REMARK  123  A    between atoms: _291  and  _292
REMARK  124  A    between atoms: _294  and  _296
REMARK  125  A    between atoms: _296  and  _297
REMARK  126  A    between atoms: _296  and  _299
REMARK  127  A    between atoms: _299  and  _300
REMARK  128  A    between atoms: _300  and  _301
REMARK  129  A    between atoms: _304  and  _306
REMARK  130  A    between atoms: _306  and  _307
REMARK  131  A    between atoms: _306  and  _309
REMARK  132  A    between atoms: _309  and  _310
REMARK  133  A    between atoms: _313  and  _315
REMARK  134  A    between atoms: _315  and  _316
REMARK  135  A    between atoms: _319  and  _321
REMARK  136  A    between atoms: _321  and  _322
REMARK  137  A    between atoms: _321  and  _324
REMARK  138  A    between atoms: _324  and  _325
REMARK  139  A    between atoms: _325  and  _448
REMARK  140  A    between atoms: _326  and  _328
REMARK  141  A    between atoms: _328  and  _329
REMARK  142  A    between atoms: _328  and  _331
REMARK  143  A    between atoms: _331  and  _332
REMARK  144  A    between atoms: _332  and  _333
REMARK  145  A    between atoms: _338  and  _340
REMARK  146  A    between atoms: _340  and  _341
REMARK  147  A    between atoms: _343  and  _345
REMARK  148  A    between atoms: _345  and  _346
REMARK  149  A    between atoms: _345  and  _348
REMARK  150  A    between atoms: _348  and  _349
REMARK  151  A    between atoms: _352  and  _354
REMARK  152  A    between atoms: _354  and  _355
REMARK  153  A    between atoms: _354  and  _357
REMARK  154  A    between atoms: _357  and  _358
REMARK  155  A    between atoms: _360  and  _362
REMARK  156  A    between atoms: _362  and  _363
REMARK  157  A    between atoms: _365  and  _367
REMARK  158  A    between atoms: _367  and  _368
REMARK  159  A    between atoms: _370  and  _372
REMARK  160  A    between atoms: _372  and  _373
REMARK  161  A    between atoms: _372  and  _375
REMARK  162  A    between atoms: _375  and  _376
REMARK  163  A    between atoms: _381  and  _383
REMARK  164  A    between atoms: _383  and  _384
REMARK  165  A    between atoms: _383  and  _386
REMARK  166  A    between atoms: _386  and  _387
REMARK  167  A    between atoms: _390  and  _392
REMARK  168  A    between atoms: _392  and  _393
REMARK  169  A    between atoms: _392  and  _395
REMARK  170  A    between atoms: _398  and  _400
REMARK  171  A    between atoms: _400  and  _401
REMARK  172  A    between atoms: _400  and  _403
REMARK  173  A    between atoms: _403  and  _404
REMARK  174  A    between atoms: _406  and  _408
REMARK  175  A    between atoms: _408  and  _409
REMARK  176  A    between atoms: _408  and  _411
REMARK  177  A    between atoms: _411  and  _412
REMARK  178  A    between atoms: _422  and  _424
REMARK  179  A    between atoms: _424  and  _425
REMARK  180  A    between atoms: _427  and  _429
REMARK  181  A    between atoms: _429  and  _430
REMARK  182  A    between atoms: _429  and  _432
REMARK  183  A    between atoms: _432  and  _433
REMARK  184  A    between atoms: _433  and  _434
REMARK  185  A    between atoms: _437  and  _439
REMARK  186  A    between atoms: _439  and  _440
REMARK  187  A    between atoms: _442  and  _444
REMARK  188  A    between atoms: _444  and  _445
REMARK  189  A    between atoms: _444  and  _447
REMARK  190  A    between atoms: _447  and  _448
REMARK  191  A    between atoms: _449  and  _451
REMARK  192  A    between atoms: _451  and  _452
REMARK  193  A    between atoms: _455  and  _457
REMARK  194  A    between atoms: _457  and  _458
REMARK  195  A    between atoms: _457  and  _460
REMARK  196  A    between atoms: _460  and  _461
REMARK  197  A    between atoms: _461  and  _462
REMARK  198  A    between atoms: _462  and  _463
REMARK  199  A    between atoms: _472  and  _474
REMARK  200  A    between atoms: _474  and  _475
REMARK  201  A    between atoms: _474  and  _477
REMARK  202  A    between atoms: _477  and  _478
REMARK  203  A    between atoms: _478  and  _479
REMARK  204  A    between atoms: _479  and  _480
REMARK  205  A    between atoms: _480  and  _481
REMARK  206  A    between atoms: _485  and  _487
REMARK  207  A    between atoms: _487  and  _488
REMARK  208  A    between atoms: _487  and  _490
REMARK  209  A    between atoms: _490  and  _491
REMARK  210  A    between atoms: _496  and  _497
REMARK  211  A    between atoms: _499  and  _501
REMARK  212  A    between atoms: _501  and  _502
REMARK  213  A    between atoms: _504  and  _506
REMARK  214  A    between atoms: _506  and  _507
REMARK  215  A    between atoms: _506  and  _509
REMARK  216  A    between atoms: _509  and  _510
REMARK  217  A    between atoms: _513  and  _515
REMARK  218  A    between atoms: _515  and  _516
REMARK  219  A    between atoms: _515  and  _518
REMARK  220  A    between atoms: _518  and  _519
REMARK  221  A    between atoms: _524  and  _525
REMARK  222  A    between atoms: _527  and  _529
REMARK  223  A    between atoms: _529  and  _530
REMARK  224  A    between atoms: _529  and  _532
REMARK  225  A    between atoms: _532  and  _533
REMARK                            x       y       z     vdW  Elec       q    Type
REMARK                         _______ _______ _______ _____ _____    ______ ____
ROOT
ATOM      1  CB  HIS A   1       8.572  10.977  29.719  0.00  0.00    +0.072 C 
ENDROOT
BRANCH   1   2
ATOM      2  CG  HIS A   1       8.536   9.563  29.247  0.00  0.00    +0.082 A 
ATOM      3  ND1 HIS A   1       8.463   8.493  30.113  0.00  0.00    -0.227 NA
ATOM      4  CE1 HIS A   1       8.448   7.369  29.419  0.00  0.00    +0.199 A 
ATOM      5  NE2 HIS A   1       8.530   7.677  28.137  0.00  0.00    -0.221 NA
ATOM      6  CD2 HIS A   1       8.574   9.043  28.000  0.00  0.00    +0.115 A 
ENDBRANCH   1   2
BRANCH   1   7
ATOM      7  CA  HIS A   1       7.270  11.739  29.493  0.00  0.00    +0.139 C 
BRANCH   7   8
ATOM      8  N   HIS A   1       6.343  11.514  30.595  0.00  0.00    -0.239 NA
ATOM      9  H   HIS A   1       6.486  10.702  31.229  0.00  0.00    +0.142 HD
ENDBRANCH   7   8
BRANCH   7  10
ATOM     10  C   HIS A   1       6.682  11.398  28.128  0.00  0.00    +0.224 C 
ATOM     11  O   HIS A   1       7.285  11.690  27.080  0.00  0.00    -0.287 OA
ENDBRANCH   7  10
ENDBRANCH   1   7
TORSDOF 4
REMARK  Name = ../refined-set-2016/2vvc/2vvc_pocket.pdb
REMARK  225 active torsions:
REMARK  status: ('A' for Active; 'I' for Inactive)
REMARK    1  A    between atoms: _1  and  _5
REMARK    2  A    between atoms: _5  and  _6
REMARK    3  A    between atoms: _5  and  _8
REMARK    4  A    between atoms: _8  and  _9
REMARK    5  A    between atoms: _12  and  _14
REMARK    6  A    between atoms: _14  and  _15
REMARK    7  A    between atoms: _14  and  _17
REMARK    8  A    between atoms: _20  and  _22
REMARK    9  A    between atoms: _22  and  _23
REMARK   10  A    between atoms: _22  and  _25
REMARK   11  A    between atoms: _25  and  _26
REMARK   12  A    between atoms: _31  and  _33
REMARK   13  A    between atoms: _33  and  _34
REMARK   14  A    between atoms: _33  and  _36
REMARK   15  A    between atoms: _36  and  _37
REMARK   16  A    between atoms: _37  and  _38
REMARK   17  A    between atoms: _43  and  _45
REMARK   18  A    between atoms: _45  and  _46
REMARK   19  A    between atoms: _45  and  _48
REMARK   20  A    between atoms: _48  and  _49
REMARK   21  A    between atoms: _55  and  _57
REMARK   22  A    between atoms: _57  and  _58
REMARK   23  A    between atoms: _57  and  _60
REMARK   24  A    between atoms: _60  and  _61
REMARK   25  A    between atoms: _64  and  _66
REMARK   26  A    between atoms: _66  and  _67
REMARK   27  A    between atoms: _66  and  _69
REMARK   28  A    between atoms: _69  and  _70
REMARK   29  A    between atoms: _70  and  _71
REMARK   30  A    between atoms: _71  and  _72
REMARK   31  A    between atoms: _72  and  _73
REMARK   32  A    between atoms: _77  and  _79
REMARK   33  A    between atoms: _79  and  _80
REMARK   34  A    between atoms: _79  and  _82
REMARK   35  A    between atoms: _82  and  _83
REMARK   36  A    between atoms: _83  and  _84
REMARK   37  A    between atoms: _87  and  _89
REMARK   38  A    between atoms: _89  and  _90
REMARK   39  A    between atoms: _89  and  _92
REMARK   40  A    between atoms: _92  and  _93
REMARK   41  A    between atoms: _96  and  _98
REMARK   42  A    between atoms: _98  and  _99
REMARK   43  A    between atoms: _98  and  _101
REMARK   44  A    between atoms: _101  and  _102
REMARK   45  A    between atoms: _107  and  _108
REMARK   46  A    between atoms: _110  and  _112
REMARK   47  A    between atoms: _112  and  _113
REMARK   48  A    between atoms: _112  and  _115
REMARK   49  A    between atoms: _115  and  _116
REMARK   50  A    between atoms: _119  and  _121
REMARK   51  A    between atoms: _121  and  _122
REMARK   52  A    between atoms: _121  and  _124
REMARK   53  A    between atoms: _124  and  _125
REMARK   54  A    between atoms: _128  and  _130
REMARK   55  A    between atoms: _130  and  _131
REMARK   56  A    between atoms: _130  and  _133
REMARK   57  A    between atoms: _136  and  _138
REMARK   58  A    between atoms: _138  and  _139
REMARK   59  A    between atoms: _138  and  _141
REMARK   60  A    between atoms: _141  and  _142
REMARK   61  A    between atoms: _142  and  _143
REMARK   62  A    between atoms: _143  and  _144
REMARK   63  A    between atoms: _153  and  _155
REMARK   64  A    between atoms: _155  and  _156
REMARK   65  A    between atoms: _155  and  _158
REMARK   66  A    between atoms: _158  and  _159
REMARK   67  A    between atoms: _164  and  _166
REMARK   68  A    between atoms: _166  and  _167
REMARK   69  A    between atoms: _166  and  _169
REMARK   70  A    between atoms: _169  and  _170
REMARK   71  A    between atoms: _170  and  _171
REMARK   72  A    between atoms: _174  and  _176
REMARK   73  A    between atoms: _176  and  _177
REMARK   74  A    between atoms: _176  and  _179
REMARK   75  A    between atoms: _179  and  _180
REMARK   76  A    between atoms: _180  and  _181
REMARK   77  A    between atoms: _181  and  _182
REMARK   78  A    between atoms: _182  and  _183
REMARK   79  A    between atoms: _187  and  _189
REMARK   80  A    between atoms: _189  and  _190
REMARK   81  A    between atoms: _192  and  _194
REMARK   82  A    between atoms: _194  and  _195
REMARK   83  A    between atoms: _194  and  _197
REMARK   84  A    between atoms: _200  and  _202
REMARK   85  A    between atoms: _202  and  _203
REMARK   86  A    between atoms: _202  and  _205
REMARK   87  A    between atoms: _205  and  _206
REMARK   88  A    between atoms: _208  and  _210
REMARK   89  A    between atoms: _210  and  _211
REMARK   90  A    between atoms: _210  and  _213
REMARK   91  A    between atoms: _213  and  _214
REMARK   92  A    between atoms: _216  and  _218
REMARK   93  A    between atoms: _218  and  _219
REMARK   94  A    between atoms: _218  and  _221
REMARK   95  A    between atoms: _221  and  _222
REMARK   96  A    between atoms: _228  and  _230
REMARK   97  A    between atoms: _230  and  _231
REMARK   98  A    between atoms: _230  and  _233
REMARK   99  A    between atoms: _233  and  _234
REMARK  100  A    between atoms: _237  and  _239
REMARK  101  A    between atoms: _239  and  _240
REMARK  102  A    between atoms: _239  and  _242
REMARK  103  A    between atoms: _242  and  _243
REMARK  104  A    between atoms: _246  and  _248
REMARK  105  A    between atoms: _248  and  _249
REMARK  106  A    between atoms: _248  and  _251
REMARK  107  A    between atoms: _251  and  _252
REMARK  108  A    between atoms: _255  and  _257
REMARK  109  A    between atoms: _257  and  _258
REMARK  110  A    between atoms: _257  and  _260
REMARK  111  A    between atoms: _260  and  _261
REMARK  112  A    between atoms: _261  and  _262
REMARK  113  A    between atoms: _264  and  _266
REMARK  114  A    between atoms: _266  and  _267
REMARK  115  A    between atoms: _266  and  _269
REMARK  116  A    between atoms: _269  and  _270
REMARK  117  A    between atoms: _276  and  _278
REMARK  118  A    between atoms: _278  and  _279
REMARK  119  A    between atoms: _278  and  _281
REMARK  120  A    between atoms: _283  and  _285
REMARK  121  A    between atoms: _285  and  _286
REMARK  122  A    between atoms: _289  and  _291
REMARK  123  A    between atoms: _291  and  _292
REMARK  124  A    between atoms: _294  and  _296
REMARK  125  A    between atoms: _296  and  _297
REMARK  126  A    between atoms: _296  and  _299
REMARK  127  A    between atoms: _299  and  _300
REMARK  128  A    between atoms: _300  and  _301
REMARK  129  A    between atoms: _304  and  _306
REMARK  130  A    between atoms: _306  and  _307
REMARK  131  A    between atoms: _306  and  _309
REMARK  132  A    between atoms: _309  and  _310
REMARK  133  A    between atoms: _313  and  _315
REMARK  134  A    between atoms: _315  and  _316
REMARK  135  A    between atoms: _319  and  _321
REMARK  136  A    between atoms: _321  and  _322
REMARK  137  A    between atoms: _321  and  _324
REMARK  138  A    between atoms: _324  and  _325
REMARK  139  A    between atoms: _325  and  _448
REMARK  140  A    between atoms: _326  and  _328
REMARK  141  A    between atoms: _328  and  _329
REMARK  142  A    between atoms: _328  and  _331
REMARK  143  A    between atoms: _331  and  _332
REMARK  144  A    between atoms: _332  and  _333
REMARK  145  A    between atoms: _338  and  _340
REMARK  146  A    between atoms: _340  and  _341
REMARK  147  A    between atoms: _343  and  _345
REMARK  148  A    between atoms: _345  and  _346
REMARK  149  A    between atoms: _345  and  _348
REMARK  150  A    between atoms: _348  and  _349
REMARK  151  A    between atoms: _352  and  _354
REMARK  152  A    between atoms: _354  and  _355
REMARK  153  A    between atoms: _354  and  _357
REMARK  154  A    between atoms: _357  and  _358
REMARK  155  A    between atoms: _360  and  _362
REMARK  156  A    between atoms: _362  and  _363
REMARK  157  A    between atoms: _365  and  _367
REMARK  158  A    between atoms: _367  and  _368
REMARK  159  A    between atoms: _370  and  _372
REMARK  160  A    between atoms: _372  and  _373
REMARK  161  A    between atoms: _372  and  _375
REMARK  162  A    between atoms: _375  and  _376
REMARK  163  A    between atoms: _381  and  _383
REMARK  164  A    between atoms: _383  and  _384
REMARK  165  A    between atoms: _383  and  _386
REMARK  166  A    between atoms: _386  and  _387
REMARK  167  A    between atoms: _390  and  _392
REMARK  168  A    between atoms: _392  and  _393
REMARK  169  A    between atoms: _392  and  _395
REMARK  170  A    between atoms: _398  and  _400
REMARK  171  A    between atoms: _400  and  _401
REMARK  172  A    between atoms: _400  and  _403
REMARK  173  A    between atoms: _403  and  _404
REMARK  174  A    between atoms: _406  and  _408
REMARK  175  A    between atoms: _408  and  _409
REMARK  176  A    between atoms: _408  and  _411
REMARK  177  A    between atoms: _411  and  _412
REMARK  178  A    between atoms: _422  and  _424
REMARK  179  A    between atoms: _424  and  _425
REMARK  180  A    between atoms: _427  and  _429
REMARK  181  A    between atoms: _429  and  _430
REMARK  182  A    between atoms: _429  and  _432
REMARK  183  A    between atoms: _432  and  _433
REMARK  184  A    between atoms: _433  and  _434
REMARK  185  A    between atoms: _437  and  _439
REMARK  186  A    between atoms: _439  and  _440
REMARK  187  A    between atoms: _442  and  _444
REMARK  188  A    between atoms: _444  and  _445
REMARK  189  A    between atoms: _444  and  _447
REMARK  190  A    between atoms: _447  and  _448
REMARK  191  A    between atoms: _449  and  _451
REMARK  192  A    between atoms: _451  and  _452
REMARK  193  A    between atoms: _455  and  _457
REMARK  194  A    between atoms: _457  and  _458
REMARK  195  A    between atoms: _457  and  _460
REMARK  196  A    between atoms: _460  and  _461
REMARK  197  A    between atoms: _461  and  _462
REMARK  198  A    between atoms: _462  and  _463
REMARK  199  A    between atoms: _472  and  _474
REMARK  200  A    between atoms: _474  and  _475
REMARK  201  A    between atoms: _474  and  _477
REMARK  202  A    between atoms: _477  and  _478
REMARK  203  A    between atoms: _478  and  _479
REMARK  204  A    between atoms: _479  and  _480
REMARK  205  A    between atoms: _480  and  _481
REMARK  206  A    between atoms: _485  and  _487
REMARK  207  A    between atoms: _487  and  _488
REMARK  208  A    between atoms: _487  and  _490
REMARK  209  A    between atoms: _490  and  _491
REMARK  210  A    between atoms: _496  and  _497
REMARK  211  A    between atoms: _499  and  _501
REMARK  212  A    between atoms: _501  and  _502
REMARK  213  A    between atoms: _504  and  _506
REMARK  214  A    between atoms: _506  and  _507
REMARK  215  A    between atoms: _506  and  _509
REMARK  216  A    between atoms: _509  and  _510
REMARK  217  A    between atoms: _513  and  _515
REMARK  218  A    between atoms: _515  and  _516
REMARK  219  A    between atoms: _515  and  _518
REMARK  220  A    between atoms: _518  and  _519
REMARK  221  A    between atoms: _524  and  _525
REMARK  222  A    between atoms: _527  and  _529
REMARK  223  A    between atoms: _529  and  _530
REMARK  224  A    between atoms: _529  and  _532
REMARK  225  A    between atoms: _532  and  _533
REMARK                            x       y       z     vdW  Elec       q    Type
REMARK                         _______ _______ _______ _____ _____    ______ ____
ROOT
ATOM      1  CB  GLN A   1       6.523  11.063  22.493  0.00  0.00    +0.035 C 
ENDROOT
BRANCH   1   2
ATOM      2  CA  GLN A   1       6.178  12.480  22.027  0.00  0.00    +0.134 C 
BRANCH   2   3
ATOM      3  N   GLN A   1       5.835  13.314  23.172  0.00  0.00    -0.239 NA
ATOM      4  H   GLN A   1       5.142  12.965  23.865  0.00  0.00    +0.142 HD
ENDBRANCH   2   3
BRANCH   2   5
ATOM      5  C   GLN A   1       5.059  12.485  20.999  0.00  0.00    +0.224 C 
ATOM      6  O   GLN A   1       4.978  11.599  20.139  0.00  0.00    -0.287 OA
ENDBRANCH   2   5
ENDBRANCH   1   2
BRANCH   1   7
ATOM      7  CG  GLN A   1       7.837  11.040  23.229  0.00  0.00    +0.087 C 
BRANCH   7   8
ATOM      8  CD  GLN A   1       8.053   9.772  24.024  0.00  0.00    +0.219 C 
ATOM      9  OE1 GLN A   1       8.756   9.775  25.032  0.00  0.00    -0.275 OA
ATOM     10  NE2 GLN A   1       7.462   8.678  23.568  0.00  0.00    -0.329 N 
ATOM     11 HE21 GLN A   1       7.584   7.774  24.068  0.00  0.00    +0.145 HD
ATOM     12 HE22 GLN A   1       6.876   8.723  22.710  0.00  0.00    +0.145 HD
ENDBRANCH   7   8
ENDBRANCH   1   7
TORSDOF 5
REMARK  Name = ../refined-set-2016/2vvc/2vvc_pocket.pdb
REMARK  225 active torsions:
REMARK  status: ('A' for Active; 'I' for Inactive)
REMARK    1  A    between atoms: _1  and  _5
REMARK    2  A    between atoms: _5  and  _6
REMARK    3  A    between atoms: _5  and  _8
REMARK    4  A    between atoms: _8  and  _9
REMARK    5  A    between atoms: _12  and  _14
REMARK    6  A    between atoms: _14  and  _15
REMARK    7  A    between atoms: _14  and  _17
REMARK    8  A    between atoms: _20  and  _22
REMARK    9  A    between atoms: _22  and  _23
REMARK   10  A    between atoms: _22  and  _25
REMARK   11  A    between atoms: _25  and  _26
REMARK   12  A    between atoms: _31  and  _33
REMARK   13  A    between atoms: _33  and  _34
REMARK   14  A    between atoms: _33  and  _36
REMARK   15  A    between atoms: _36  and  _37
REMARK   16  A    between atoms: _37  and  _38
REMARK   17  A    between atoms: _43  and  _45
REMARK   18  A    between atoms: _45  and  _46
REMARK   19  A    between atoms: _45  and  _48
REMARK   20  A    between atoms: _48  and  _49
REMARK   21  A    between atoms: _55  and  _57
REMARK   22  A    between atoms: _57  and  _58
REMARK   23  A    between atoms: _57  and  _60
REMARK   24  A    between atoms: _60  and  _61
REMARK   25  A    between atoms: _64  and  _66
REMARK   26  A    between atoms: _66  and  _67
REMARK   27  A    between atoms: _66  and  _69
REMARK   28  A    between atoms: _69  and  _70
REMARK   29  A    between atoms: _70  and  _71
REMARK   30  A    between atoms: _71  and  _72
REMARK   31  A    between atoms: _72  and  _73
REMARK   32  A    between atoms: _77  and  _79
REMARK   33  A    between atoms: _79  and  _80
REMARK   34  A    between atoms: _79  and  _82
REMARK   35  A    between atoms: _82  and  _83
REMARK   36  A    between atoms: _83  and  _84
REMARK   37  A    between atoms: _87  and  _89
REMARK   38  A    between atoms: _89  and  _90
REMARK   39  A    between atoms: _89  and  _92
REMARK   40  A    between atoms: _92  and  _93
REMARK   41  A    between atoms: _96  and  _98
REMARK   42  A    between atoms: _98  and  _99
REMARK   43  A    between atoms: _98  and  _101
REMARK   44  A    between atoms: _101  and  _102
REMARK   45  A    between atoms: _107  and  _108
REMARK   46  A    between atoms: _110  and  _112
REMARK   47  A    between atoms: _112  and  _113
REMARK   48  A    between atoms: _112  and  _115
REMARK   49  A    between atoms: _115  and  _116
REMARK   50  A    between atoms: _119  and  _121
REMARK   51  A    between atoms: _121  and  _122
REMARK   52  A    between atoms: _121  and  _124
REMARK   53  A    between atoms: _124  and  _125
REMARK   54  A    between atoms: _128  and  _130
REMARK   55  A    between atoms: _130  and  _131
REMARK   56  A    between atoms: _130  and  _133
REMARK   57  A    between atoms: _136  and  _138
REMARK   58  A    between atoms: _138  and  _139
REMARK   59  A    between atoms: _138  and  _141
REMARK   60  A    between atoms: _141  and  _142
REMARK   61  A    between atoms: _142  and  _143
REMARK   62  A    between atoms: _143  and  _144
REMARK   63  A    between atoms: _153  and  _155
REMARK   64  A    between atoms: _155  and  _156
REMARK   65  A    between atoms: _155  and  _158
REMARK   66  A    between atoms: _158  and  _159
REMARK   67  A    between atoms: _164  and  _166
REMARK   68  A    between atoms: _166  and  _167
REMARK   69  A    between atoms: _166  and  _169
REMARK   70  A    between atoms: _169  and  _170
REMARK   71  A    between atoms: _170  and  _171
REMARK   72  A    between atoms: _174  and  _176
REMARK   73  A    between atoms: _176  and  _177
REMARK   74  A    between atoms: _176  and  _179
REMARK   75  A    between atoms: _179  and  _180
REMARK   76  A    between atoms: _180  and  _181
REMARK   77  A    between atoms: _181  and  _182
REMARK   78  A    between atoms: _182  and  _183
REMARK   79  A    between atoms: _187  and  _189
REMARK   80  A    between atoms: _189  and  _190
REMARK   81  A    between atoms: _192  and  _194
REMARK   82  A    between atoms: _194  and  _195
REMARK   83  A    between atoms: _194  and  _197
REMARK   84  A    between atoms: _200  and  _202
REMARK   85  A    between atoms: _202  and  _203
REMARK   86  A    between atoms: _202  and  _205
REMARK   87  A    between atoms: _205  and  _206
REMARK   88  A    between atoms: _208  and  _210
REMARK   89  A    between atoms: _210  and  _211
REMARK   90  A    between atoms: _210  and  _213
REMARK   91  A    between atoms: _213  and  _214
REMARK   92  A    between atoms: _216  and  _218
REMARK   93  A    between atoms: _218  and  _219
REMARK   94  A    between atoms: _218  and  _221
REMARK   95  A    between atoms: _221  and  _222
REMARK   96  A    between atoms: _228  and  _230
REMARK   97  A    between atoms: _230  and  _231
REMARK   98  A    between atoms: _230  and  _233
REMARK   99  A    between atoms: _233  and  _234
REMARK  100  A    between atoms: _237  and  _239
REMARK  101  A    between atoms: _239  and  _240
REMARK  102  A    between atoms: _239  and  _242
REMARK  103  A    between atoms: _242  and  _243
REMARK  104  A    between atoms: _246  and  _248
REMARK  105  A    between atoms: _248  and  _249
REMARK  106  A    between atoms: _248  and  _251
REMARK  107  A    between atoms: _251  and  _252
REMARK  108  A    between atoms: _255  and  _257
REMARK  109  A    between atoms: _257  and  _258
REMARK  110  A    between atoms: _257  and  _260
REMARK  111  A    between atoms: _260  and  _261
REMARK  112  A    between atoms: _261  and  _262
REMARK  113  A    between atoms: _264  and  _266
REMARK  114  A    between atoms: _266  and  _267
REMARK  115  A    between atoms: _266  and  _269
REMARK  116  A    between atoms: _269  and  _270
REMARK  117  A    between atoms: _276  and  _278
REMARK  118  A    between atoms: _278  and  _279
REMARK  119  A    between atoms: _278  and  _281
REMARK  120  A    between atoms: _283  and  _285
REMARK  121  A    between atoms: _285  and  _286
REMARK  122  A    between atoms: _289  and  _291
REMARK  123  A    between atoms: _291  and  _292
REMARK  124  A    between atoms: _294  and  _296
REMARK  125  A    between atoms: _296  and  _297
REMARK  126  A    between atoms: _296  and  _299
REMARK  127  A    between atoms: _299  and  _300
REMARK  128  A    between atoms: _300  and  _301
REMARK  129  A    between atoms: _304  and  _306
REMARK  130  A    between atoms: _306  and  _307
REMARK  131  A    between atoms: _306  and  _309
REMARK  132  A    between atoms: _309  and  _310
REMARK  133  A    between atoms: _313  and  _315
REMARK  134  A    between atoms: _315  and  _316
REMARK  135  A    between atoms: _319  and  _321
REMARK  136  A    between atoms: _321  and  _322
REMARK  137  A    between atoms: _321  and  _324
REMARK  138  A    between atoms: _324  and  _325
REMARK  139  A    between atoms: _325  and  _448
REMARK  140  A    between atoms: _326  and  _328
REMARK  141  A    between atoms: _328  and  _329
REMARK  142  A    between atoms: _328  and  _331
REMARK  143  A    between atoms: _331  and  _332
REMARK  144  A    between atoms: _332  and  _333
REMARK  145  A    between atoms: _338  and  _340
REMARK  146  A    between atoms: _340  and  _341
REMARK  147  A    between atoms: _343  and  _345
REMARK  148  A    between atoms: _345  and  _346
REMARK  149  A    between atoms: _345  and  _348
REMARK  150  A    between atoms: _348  and  _349
REMARK  151  A    between atoms: _352  and  _354
REMARK  152  A    between atoms: _354  and  _355
REMARK  153  A    between atoms: _354  and  _357
REMARK  154  A    between atoms: _357  and  _358
REMARK  155  A    between atoms: _360  and  _362
REMARK  156  A    between atoms: _362  and  _363
REMARK  157  A    between atoms: _365  and  _367
REMARK  158  A    between atoms: _367  and  _368
REMARK  159  A    between atoms: _370  and  _372
REMARK  160  A    between atoms: _372  and  _373
REMARK  161  A    between atoms: _372  and  _375
REMARK  162  A    between atoms: _375  and  _376
REMARK  163  A    between atoms: _381  and  _383
REMARK  164  A    between atoms: _383  and  _384
REMARK  165  A    between atoms: _383  and  _386
REMARK  166  A    between atoms: _386  and  _387
REMARK  167  A    between atoms: _390  and  _392
REMARK  168  A    between atoms: _392  and  _393
REMARK  169  A    between atoms: _392  and  _395
REMARK  170  A    between atoms: _398  and  _400
REMARK  171  A    between atoms: _400  and  _401
REMARK  172  A    between atoms: _400  and  _403
REMARK  173  A    between atoms: _403  and  _404
REMARK  174  A    between atoms: _406  and  _408
REMARK  175  A    between atoms: _408  and  _409
REMARK  176  A    between atoms: _408  and  _411
REMARK  177  A    between atoms: _411  and  _412
REMARK  178  A    between atoms: _422  and  _424
REMARK  179  A    between atoms: _424  and  _425
REMARK  180  A    between atoms: _427  and  _429
REMARK  181  A    between atoms: _429  and  _430
REMARK  182  A    between atoms: _429  and  _432
REMARK  183  A    between atoms: _432  and  _433
REMARK  184  A    between atoms: _433  and  _434
REMARK  185  A    between atoms: _437  and  _439
REMARK  186  A    between atoms: _439  and  _440
REMARK  187  A    between atoms: _442  and  _444
REMARK  188  A    between atoms: _444  and  _445
REMARK  189  A    between atoms: _444  and  _447
REMARK  190  A    between atoms: _447  and  _448
REMARK  191  A    between atoms: _449  and  _451
REMARK  192  A    between atoms: _451  and  _452
REMARK  193  A    between atoms: _455  and  _457
REMARK  194  A    between atoms: _457  and  _458
REMARK  195  A    between atoms: _457  and  _460
REMARK  196  A    between atoms: _460  and  _461
REMARK  197  A    between atoms: _461  and  _462
REMARK  198  A    between atoms: _462  and  _463
REMARK  199  A    between atoms: _472  and  _474
REMARK  200  A    between atoms: _474  and  _475
REMARK  201  A    between atoms: _474  and  _477
REMARK  202  A    between atoms: _477  and  _478
REMARK  203  A    between atoms: _478  and  _479
REMARK  204  A    between atoms: _479  and  _480
REMARK  205  A    between atoms: _480  and  _481
REMARK  206  A    between atoms: _485  and  _487
REMARK  207  A    between atoms: _487  and  _488
REMARK  208  A    between atoms: _487  and  _490
REMARK  209  A    between atoms: _490  and  _491
REMARK  210  A    between atoms: _496  and  _497
REMARK  211  A    between atoms: _499  and  _501
REMARK  212  A    between atoms: _501  and  _502
REMARK  213  A    between atoms: _504  and  _506
REMARK  214  A    between atoms: _506  and  _507
REMARK  215  A    between atoms: _506  and  _509
REMARK  216  A    between atoms: _509  and  _510
REMARK  217  A    between atoms: _513  and  _515
REMARK  218  A    between atoms: _515  and  _516
REMARK  219  A    between atoms: _515  and  _518
REMARK  220  A    between atoms: _518  and  _519
REMARK  221  A    between atoms: _524  and  _525
REMARK  222  A    between atoms: _527  and  _529
REMARK  223  A    between atoms: _529  and  _530
REMARK  224  A    between atoms: _529  and  _532
REMARK  225  A    between atoms: _532  and  _533
REMARK                            x       y       z     vdW  Elec       q    Type
REMARK                         _______ _______ _______ _____ _____    ______ ____
ROOT
ATOM      1  CA  GLU A   4      16.202  16.443  32.577  0.00  0.00    +0.149 C 
ENDROOT
BRANCH   1   3
ATOM      2  C   LYS A   3      14.402  15.279  31.349  0.00  0.00    +0.241 C 
ATOM      3  N   GLU A   4      14.831  16.297  32.089  0.00  0.00    -0.297 N 
ATOM      4  H   GLU A   4      14.146  17.039  32.337  0.00  0.00    +0.150 HD
ATOM      5  O   LYS A   3      15.118  14.341  30.973  0.00  0.00    -0.273 OA
BRANCH   2   6
ATOM      6  CA  LYS A   3      12.944  15.373  30.928  0.00  0.00    +0.149 C 
BRANCH   6   9
ATOM      7  C   THR A   2      12.026  16.007  33.104  0.00  0.00    +0.243 C 
ATOM      8  O   THR A   2      12.446  14.998  33.662  0.00  0.00    -0.273 OA
ATOM      9  N   LYS A   3      12.200  16.255  31.814  0.00  0.00    -0.297 N 
ATOM     10  H   LYS A   3      11.785  17.122  31.416  0.00  0.00    +0.150 HD
BRANCH   7  11
ATOM     11  CA  THR A   2      11.225  17.024  33.885  0.00  0.00    +0.176 C 
BRANCH  11  14
ATOM     12  C   PHE A   1       9.182  16.833  35.194  0.00  0.00    +0.239 C 
ATOM     13  O   PHE A   1       8.815  17.954  34.881  0.00  0.00    -0.274 OA
ATOM     14  N   THR A   2      10.361  16.340  34.846  0.00  0.00    -0.295 N 
ATOM     15  H   THR A   2      10.680  15.444  35.267  0.00  0.00    +0.150 HD
BRANCH  12  16
ATOM     16  CA  PHE A   1       8.286  15.926  36.028  0.00  0.00    +0.149 C 
BRANCH  16  17
ATOM     17  N   PHE A   1       7.551  16.665  37.083  0.00  0.00    -0.238 NA
ATOM     18  H   PHE A   1       6.514  16.738  37.049  0.00  0.00    +0.142 HD
ENDBRANCH  16  17
BRANCH  16  19
ATOM     19  CB  PHE A   1       7.346  15.168  35.078  0.00  0.00    +0.053 C 
BRANCH  19  20
ATOM     20  CG  PHE A   1       8.050  14.609  33.867  0.00  0.00    -0.020 A 
ATOM     21  CD2 PHE A   1       8.695  13.375  33.937  0.00  0.00    -0.004 A 
ATOM     22  CE2 PHE A   1       9.354  12.853  32.830  0.00  0.00    -0.000 A 
ATOM     23  CZ  PHE A   1       9.379  13.575  31.626  0.00  0.00    -0.000 A 
ATOM     24  CE1 PHE A   1       8.757  14.833  31.551  0.00  0.00    -0.000 A 
ATOM     25  CD1 PHE A   1       8.097  15.333  32.668  0.00  0.00    -0.004 A 
ENDBRANCH  19  20
ENDBRANCH  16  19
ENDBRANCH  12  16
ENDBRANCH  11  14
BRANCH  11  26
ATOM     26  CB  THR A   2      12.186  18.019  34.547  0.00  0.00    +0.137 C 
ATOM     27  CG2 THR A   2      13.041  17.332  35.610  0.00  0.00    +0.034 C 
BRANCH  26  28
ATOM     28  OG1 THR A   2      13.043  18.568  33.537  0.00  0.00    -0.382 OA
ATOM     29  HG1 THR A   2      13.669  19.213  33.952  0.00  0.00    +0.210 HD
ENDBRANCH  26  28
ENDBRANCH  11  26
ENDBRANCH   7  11
ENDBRANCH   6   9
BRANCH   6  30
ATOM     30  CB  LYS A   3      12.851  15.890  29.480  0.00  0.00    +0.029 C 
BRANCH  30  31
ATOM     31  CG  LYS A   3      11.986  14.985  28.585  0.00  0.00    +0.000 C 
BRANCH  31  32
ATOM     32  CD  LYS A   3      11.710  15.590  27.185  0.00  0.00    -0.024 C 
BRANCH  32  33
ATOM     33  CE  LYS A   3      10.670  14.734  26.430  0.00  0.00    -0.086 C 
BRANCH  33  34
ATOM     34  NZ  LYS A   3      10.574  15.082  24.981  0.00  0.00    +0.380 N 
ATOM     35  HZ1 LYS A   3      10.296  16.079  24.883  0.00  0.00    -0.089 HD
ATOM     36  HZ2 LYS A   3      11.498  14.932  24.528  0.00  0.00    -0.089 HD
ATOM     37  HZ3 LYS A   3       9.861  14.476  24.527  0.00  0.00    -0.089 HD
ENDBRANCH  33  34
ENDBRANCH  32  33
ENDBRANCH  31  32
ENDBRANCH  30  31
ENDBRANCH   6  30
ENDBRANCH   2   6
ENDBRANCH   1   3
BRANCH   1  38
ATOM     38  C   GLU A   4      16.556  15.242  33.452  0.00  0.00    +0.241 C 
ATOM     39  N   THR A   5      15.606  14.868  34.299  0.00  0.00    -0.295 N 
ATOM     40  H   THR A   5      14.667  15.310  34.236  0.00  0.00    +0.150 HD
ATOM     41  O   GLU A   4      17.646  14.658  33.356  0.00  0.00    -0.273 OA
BRANCH  39  42
ATOM     42  CA  THR A   5      15.848  13.853  35.315  0.00  0.00    +0.176 C 
BRANCH  42  43
ATOM     43  C   THR A   5      14.954  12.651  35.170  0.00  0.00    +0.243 C 
ATOM     44  O   THR A   5      15.228  11.614  35.748  0.00  0.00    -0.273 OA
ATOM     45  N   TYR A   6      13.856  12.818  34.444  0.00  0.00    -0.297 N 
ATOM     46  H   TYR A   6      13.739  13.705  33.913  0.00  0.00    +0.150 HD
BRANCH  45  47
ATOM     47  CA  TYR A   6      12.797  11.800  34.359  0.00  0.00    +0.153 C 
BRANCH  47  48
ATOM     48  C   TYR A   6      12.164  11.441  35.711  0.00  0.00    +0.241 C 
ATOM     49  N   ASP A   7      12.360  12.284  36.723  0.00  0.00    -0.298 N 
ATOM     50  H   ASP A   7      12.970  13.113  36.572  0.00  0.00    +0.150 HD
ATOM     51  O   TYR A   6      11.507  10.403  35.815  0.00  0.00    -0.273 OA
BRANCH  49  52
ATOM     52  CA  ASP A   7      11.749  12.089  38.044  0.00  0.00    +0.148 C 
BRANCH  52  53
ATOM     53  C   ASP A   7      10.270  12.478  37.974  0.00  0.00    +0.227 C 
ATOM     54  O   ASP A   7       9.911  13.272  37.114  0.00  0.00    -0.286 OA
ENDBRANCH  52  53
BRANCH  52  55
ATOM     55  CB  ASP A   7      12.472  12.998  39.038  0.00  0.00    +0.142 C 
BRANCH  55  56
ATOM     56  CG  ASP A   7      12.304  12.559  40.503  0.00  0.00    +0.367 C 
ATOM     57  OD2 ASP A   7      12.800  13.321  41.359  0.00  0.00    -0.246 OA
ATOM     58  OD1 ASP A   7      11.706  11.493  40.808  0.00  0.00    -0.246 OA
ENDBRANCH  55  56
ENDBRANCH  52  55
ENDBRANCH  49  52
ENDBRANCH  47  48
BRANCH  47  59
ATOM     59  CB  TYR A   6      13.290  10.517  33.681  0.00  0.00    +0.055 C 
BRANCH  59  60
ATOM     60  CG  TYR A   6      13.018  10.431  32.203  0.00  0.00    -0.020 A 
ATOM     61  CD2 TYR A   6      12.138   9.467  31.701  0.00  0.00    -0.001 A 
ATOM     62  CE2 TYR A   6      11.871   9.380  30.339  0.00  0.00    +0.036 A 
ATOM     63  CZ  TYR A   6      12.490  10.250  29.468  0.00  0.00    +0.134 A 
ATOM     64  CE1 TYR A   6      13.366  11.232  29.941  0.00  0.00    +0.036 A 
ATOM     65  CD1 TYR A   6      13.626  11.307  31.304  0.00  0.00    -0.001 A 
BRANCH  63  66
ATOM     66  OH  TYR A   6      12.239  10.139  28.118  0.00  0.00    -0.506 OA
ATOM     67  HH  TYR A   6      12.512   9.240  27.806  0.00  0.00    +0.292 HD
ENDBRANCH  63  66
ENDBRANCH  59  60
ENDBRANCH  47  59
ENDBRANCH  45  47
ENDBRANCH  42  43
BRANCH  42  68
ATOM     68  CB  THR A   5      15.558  14.401  36.715  0.00  0.00    +0.137 C 
ATOM     69  CG2 THR A   5      16.422  15.609  36.995  0.00  0.00    +0.034 C 
BRANCH  68  70
ATOM     70  OG1 THR A   5      14.180  14.783  36.791  0.00  0.00    -0.382 OA
ATOM     71  HG1 THR A   5      13.987  15.138  37.695  0.00  0.00    +0.210 HD
ENDBRANCH  68  70
ENDBRANCH  42  68
ENDBRANCH  39  42
ENDBRANCH   1  38
BRANCH   1  72
ATOM     72  CB  GLU A   4      16.281  17.732  33.410  0.00  0.00    +0.041 C 
BRANCH  72  73
ATOM     73  CG  GLU A   4      17.537  17.888  34.247  0.00  0.00    +0.116 C 
BRANCH  73  74
ATOM     74  CD  GLU A   4      17.308  18.739  35.512  0.00  0.00    +0.365 C 
ATOM     75  OE2 GLU A   4      18.296  19.253  36.087  0.00  0.00    -0.246 OA
ATOM     76  OE1 GLU A   4      16.133  18.876  35.928  0.00  0.00    -0.246 OA
ENDBRANCH  73  74
ENDBRANCH  72  73
ENDBRANCH   1  72
TORSDOF 33
REMARK  Name = ../refined-set-2016/2vvc/2vvc_pocket.pdb
REMARK  225 active torsions:
REMARK  status: ('A' for Active; 'I' for Inactive)
REMARK    1  A    between atoms: _1  and  _5
REMARK    2  A    between atoms: _5  and  _6
REMARK    3  A    between atoms: _5  and  _8
REMARK    4  A    between atoms: _8  and  _9
REMARK    5  A    between atoms: _12  and  _14
REMARK    6  A    between atoms: _14  and  _15
REMARK    7  A    between atoms: _14  and  _17
REMARK    8  A    between atoms: _20  and  _22
REMARK    9  A    between atoms: _22  and  _23
REMARK   10  A    between atoms: _22  and  _25
REMARK   11  A    between atoms: _25  and  _26
REMARK   12  A    between atoms: _31  and  _33
REMARK   13  A    between atoms: _33  and  _34
REMARK   14  A    between atoms: _33  and  _36
REMARK   15  A    between atoms: _36  and  _37
REMARK   16  A    between atoms: _37  and  _38
REMARK   17  A    between atoms: _43  and  _45
REMARK   18  A    between atoms: _45  and  _46
REMARK   19  A    between atoms: _45  and  _48
REMARK   20  A    between atoms: _48  and  _49
REMARK   21  A    between atoms: _55  and  _57
REMARK   22  A    between atoms: _57  and  _58
REMARK   23  A    between atoms: _57  and  _60
REMARK   24  A    between atoms: _60  and  _61
REMARK   25  A    between atoms: _64  and  _66
REMARK   26  A    between atoms: _66  and  _67
REMARK   27  A    between atoms: _66  and  _69
REMARK   28  A    between atoms: _69  and  _70
REMARK   29  A    between atoms: _70  and  _71
REMARK   30  A    between atoms: _71  and  _72
REMARK   31  A    between atoms: _72  and  _73
REMARK   32  A    between atoms: _77  and  _79
REMARK   33  A    between atoms: _79  and  _80
REMARK   34  A    between atoms: _79  and  _82
REMARK   35  A    between atoms: _82  and  _83
REMARK   36  A    between atoms: _83  and  _84
REMARK   37  A    between atoms: _87  and  _89
REMARK   38  A    between atoms: _89  and  _90
REMARK   39  A    between atoms: _89  and  _92
REMARK   40  A    between atoms: _92  and  _93
REMARK   41  A    between atoms: _96  and  _98
REMARK   42  A    between atoms: _98  and  _99
REMARK   43  A    between atoms: _98  and  _101
REMARK   44  A    between atoms: _101  and  _102
REMARK   45  A    between atoms: _107  and  _108
REMARK   46  A    between atoms: _110  and  _112
REMARK   47  A    between atoms: _112  and  _113
REMARK   48  A    between atoms: _112  and  _115
REMARK   49  A    between atoms: _115  and  _116
REMARK   50  A    between atoms: _119  and  _121
REMARK   51  A    between atoms: _121  and  _122
REMARK   52  A    between atoms: _121  and  _124
REMARK   53  A    between atoms: _124  and  _125
REMARK   54  A    between atoms: _128  and  _130
REMARK   55  A    between atoms: _130  and  _131
REMARK   56  A    between atoms: _130  and  _133
REMARK   57  A    between atoms: _136  and  _138
REMARK   58  A    between atoms: _138  and  _139
REMARK   59  A    between atoms: _138  and  _141
REMARK   60  A    between atoms: _141  and  _142
REMARK   61  A    between atoms: _142  and  _143
REMARK   62  A    between atoms: _143  and  _144
REMARK   63  A    between atoms: _153  and  _155
REMARK   64  A    between atoms: _155  and  _156
REMARK   65  A    between atoms: _155  and  _158
REMARK   66  A    between atoms: _158  and  _159
REMARK   67  A    between atoms: _164  and  _166
REMARK   68  A    between atoms: _166  and  _167
REMARK   69  A    between atoms: _166  and  _169
REMARK   70  A    between atoms: _169  and  _170
REMARK   71  A    between atoms: _170  and  _171
REMARK   72  A    between atoms: _174  and  _176
REMARK   73  A    between atoms: _176  and  _177
REMARK   74  A    between atoms: _176  and  _179
REMARK   75  A    between atoms: _179  and  _180
REMARK   76  A    between atoms: _180  and  _181
REMARK   77  A    between atoms: _181  and  _182
REMARK   78  A    between atoms: _182  and  _183
REMARK   79  A    between atoms: _187  and  _189
REMARK   80  A    between atoms: _189  and  _190
REMARK   81  A    between atoms: _192  and  _194
REMARK   82  A    between atoms: _194  and  _195
REMARK   83  A    between atoms: _194  and  _197
REMARK   84  A    between atoms: _200  and  _202
REMARK   85  A    between atoms: _202  and  _203
REMARK   86  A    between atoms: _202  and  _205
REMARK   87  A    between atoms: _205  and  _206
REMARK   88  A    between atoms: _208  and  _210
REMARK   89  A    between atoms: _210  and  _211
REMARK   90  A    between atoms: _210  and  _213
REMARK   91  A    between atoms: _213  and  _214
REMARK   92  A    between atoms: _216  and  _218
REMARK   93  A    between atoms: _218  and  _219
REMARK   94  A    between atoms: _218  and  _221
REMARK   95  A    between atoms: _221  and  _222
REMARK   96  A    between atoms: _228  and  _230
REMARK   97  A    between atoms: _230  and  _231
REMARK   98  A    between atoms: _230  and  _233
REMARK   99  A    between atoms: _233  and  _234
REMARK  100  A    between atoms: _237  and  _239
REMARK  101  A    between atoms: _239  and  _240
REMARK  102  A    between atoms: _239  and  _242
REMARK  103  A    between atoms: _242  and  _243
REMARK  104  A    between atoms: _246  and  _248
REMARK  105  A    between atoms: _248  and  _249
REMARK  106  A    between atoms: _248  and  _251
REMARK  107  A    between atoms: _251  and  _252
REMARK  108  A    between atoms: _255  and  _257
REMARK  109  A    between atoms: _257  and  _258
REMARK  110  A    between atoms: _257  and  _260
REMARK  111  A    between atoms: _260  and  _261
REMARK  112  A    between atoms: _261  and  _262
REMARK  113  A    between atoms: _264  and  _266
REMARK  114  A    between atoms: _266  and  _267
REMARK  115  A    between atoms: _266  and  _269
REMARK  116  A    between atoms: _269  and  _270
REMARK  117  A    between atoms: _276  and  _278
REMARK  118  A    between atoms: _278  and  _279
REMARK  119  A    between atoms: _278  and  _281
REMARK  120  A    between atoms: _283  and  _285
REMARK  121  A    between atoms: _285  and  _286
REMARK  122  A    between atoms: _289  and  _291
REMARK  123  A    between atoms: _291  and  _292
REMARK  124  A    between atoms: _294  and  _296
REMARK  125  A    between atoms: _296  and  _297
REMARK  126  A    between atoms: _296  and  _299
REMARK  127  A    between atoms: _299  and  _300
REMARK  128  A    between atoms: _300  and  _301
REMARK  129  A    between atoms: _304  and  _306
REMARK  130  A    between atoms: _306  and  _307
REMARK  131  A    between atoms: _306  and  _309
REMARK  132  A    between atoms: _309  and  _310
REMARK  133  A    between atoms: _313  and  _315
REMARK  134  A    between atoms: _315  and  _316
REMARK  135  A    between atoms: _319  and  _321
REMARK  136  A    between atoms: _321  and  _322
REMARK  137  A    between atoms: _321  and  _324
REMARK  138  A    between atoms: _324  and  _325
REMARK  139  A    between atoms: _325  and  _448
REMARK  140  A    between atoms: _326  and  _328
REMARK  141  A    between atoms: _328  and  _329
REMARK  142  A    between atoms: _328  and  _331
REMARK  143  A    between atoms: _331  and  _332
REMARK  144  A    between atoms: _332  and  _333
REMARK  145  A    between atoms: _338  and  _340
REMARK  146  A    between atoms: _340  and  _341
REMARK  147  A    between atoms: _343  and  _345
REMARK  148  A    between atoms: _345  and  _346
REMARK  149  A    between atoms: _345  and  _348
REMARK  150  A    between atoms: _348  and  _349
REMARK  151  A    between atoms: _352  and  _354
REMARK  152  A    between atoms: _354  and  _355
REMARK  153  A    between atoms: _354  and  _357
REMARK  154  A    between atoms: _357  and  _358
REMARK  155  A    between atoms: _360  and  _362
REMARK  156  A    between atoms: _362  and  _363
REMARK  157  A    between atoms: _365  and  _367
REMARK  158  A    between atoms: _367  and  _368
REMARK  159  A    between atoms: _370  and  _372
REMARK  160  A    between atoms: _372  and  _373
REMARK  161  A    between atoms: _372  and  _375
REMARK  162  A    between atoms: _375  and  _376
REMARK  163  A    between atoms: _381  and  _383
REMARK  164  A    between atoms: _383  and  _384
REMARK  165  A    between atoms: _383  and  _386
REMARK  166  A    between atoms: _386  and  _387
REMARK  167  A    between atoms: _390  and  _392
REMARK  168  A    between atoms: _392  and  _393
REMARK  169  A    between atoms: _392  and  _395
REMARK  170  A    between atoms: _398  and  _400
REMARK  171  A    between atoms: _400  and  _401
REMARK  172  A    between atoms: _400  and  _403
REMARK  173  A    between atoms: _403  and  _404
REMARK  174  A    between atoms: _406  and  _408
REMARK  175  A    between atoms: _408  and  _409
REMARK  176  A    between atoms: _408  and  _411
REMARK  177  A    between atoms: _411  and  _412
REMARK  178  A    between atoms: _422  and  _424
REMARK  179  A    between atoms: _424  and  _425
REMARK  180  A    between atoms: _427  and  _429
REMARK  181  A    between atoms: _429  and  _430
REMARK  182  A    between atoms: _429  and  _432
REMARK  183  A    between atoms: _432  and  _433
REMARK  184  A    between atoms: _433  and  _434
REMARK  185  A    between atoms: _437  and  _439
REMARK  186  A    between atoms: _439  and  _440
REMARK  187  A    between atoms: _442  and  _444
REMARK  188  A    between atoms: _444  and  _445
REMARK  189  A    between atoms: _444  and  _447
REMARK  190  A    between atoms: _447  and  _448
REMARK  191  A    between atoms: _449  and  _451
REMARK  192  A    between atoms: _451  and  _452
REMARK  193  A    between atoms: _455  and  _457
REMARK  194  A    between atoms: _457  and  _458
REMARK  195  A    between atoms: _457  and  _460
REMARK  196  A    between atoms: _460  and  _461
REMARK  197  A    between atoms: _461  and  _462
REMARK  198  A    between atoms: _462  and  _463
REMARK  199  A    between atoms: _472  and  _474
REMARK  200  A    between atoms: _474  and  _475
REMARK  201  A    between atoms: _474  and  _477
REMARK  202  A    between atoms: _477  and  _478
REMARK  203  A    between atoms: _478  and  _479
REMARK  204  A    between atoms: _479  and  _480
REMARK  205  A    between atoms: _480  and  _481
REMARK  206  A    between atoms: _485  and  _487
REMARK  207  A    between atoms: _487  and  _488
REMARK  208  A    between atoms: _487  and  _490
REMARK  209  A    between atoms: _490  and  _491
REMARK  210  A    between atoms: _496  and  _497
REMARK  211  A    between atoms: _499  and  _501
REMARK  212  A    between atoms: _501  and  _502
REMARK  213  A    between atoms: _504  and  _506
REMARK  214  A    between atoms: _506  and  _507
REMARK  215  A    between atoms: _506  and  _509
REMARK  216  A    between atoms: _509  and  _510
REMARK  217  A    between atoms: _513  and  _515
REMARK  218  A    between atoms: _515  and  _516
REMARK  219  A    between atoms: _515  and  _518
REMARK  220  A    between atoms: _518  and  _519
REMARK  221  A    between atoms: _524  and  _525
REMARK  222  A    between atoms: _527  and  _529
REMARK  223  A    between atoms: _529  and  _530
REMARK  224  A    between atoms: _529  and  _532
REMARK  225  A    between atoms: _532  and  _533
REMARK                            x       y       z     vdW  Elec       q    Type
REMARK                         _______ _______ _______ _____ _____    ______ ____
ROOT
ATOM      1  CA  ASP A   1       7.297  10.390  35.661  0.00  0.00    +0.144 C 
ENDROOT
BRANCH   1   2
ATOM      2  N   ASP A   1       7.701  10.820  36.994  0.00  0.00    -0.239 NA
ATOM      3  H   ASP A   1       8.275  10.174  37.573  0.00  0.00    +0.142 HD
ENDBRANCH   1   2
BRANCH   1   4
ATOM      4  C   ASP A   1       5.923   9.719  35.654  0.00  0.00    +0.225 C 
ATOM      5  O   ASP A   1       5.786   8.498  35.493  0.00  0.00    -0.287 OA
ENDBRANCH   1   4
BRANCH   1   6
ATOM      6  CB  ASP A   1       8.347   9.500  35.011  0.00  0.00    +0.139 C 
BRANCH   6   7
ATOM      7  CG  ASP A   1       8.079   9.278  33.550  0.00  0.00    +0.367 C 
ATOM      8  OD2 ASP A   1       7.167   9.940  33.020  0.00  0.00    -0.246 OA
ATOM      9  OD1 ASP A   1       8.769   8.452  32.922  0.00  0.00    -0.246 OA
ENDBRANCH   6   7
ENDBRANCH   1   6
TORSDOF 4
REMARK  Name = ../refined-set-2016/2vvc/2vvc_pocket.pdb
REMARK  225 active torsions:
REMARK  status: ('A' for Active; 'I' for Inactive)
REMARK    1  A    between atoms: _1  and  _5
REMARK    2  A    between atoms: _5  and  _6
REMARK    3  A    between atoms: _5  and  _8
REMARK    4  A    between atoms: _8  and  _9
REMARK    5  A    between atoms: _12  and  _14
REMARK    6  A    between atoms: _14  and  _15
REMARK    7  A    between atoms: _14  and  _17
REMARK    8  A    between atoms: _20  and  _22
REMARK    9  A    between atoms: _22  and  _23
REMARK   10  A    between atoms: _22  and  _25
REMARK   11  A    between atoms: _25  and  _26
REMARK   12  A    between atoms: _31  and  _33
REMARK   13  A    between atoms: _33  and  _34
REMARK   14  A    between atoms: _33  and  _36
REMARK   15  A    between atoms: _36  and  _37
REMARK   16  A    between atoms: _37  and  _38
REMARK   17  A    between atoms: _43  and  _45
REMARK   18  A    between atoms: _45  and  _46
REMARK   19  A    between atoms: _45  and  _48
REMARK   20  A    between atoms: _48  and  _49
REMARK   21  A    between atoms: _55  and  _57
REMARK   22  A    between atoms: _57  and  _58
REMARK   23  A    between atoms: _57  and  _60
REMARK   24  A    between atoms: _60  and  _61
REMARK   25  A    between atoms: _64  and  _66
REMARK   26  A    between atoms: _66  and  _67
REMARK   27  A    between atoms: _66  and  _69
REMARK   28  A    between atoms: _69  and  _70
REMARK   29  A    between atoms: _70  and  _71
REMARK   30  A    between atoms: _71  and  _72
REMARK   31  A    between atoms: _72  and  _73
REMARK   32  A    between atoms: _77  and  _79
REMARK   33  A    between atoms: _79  and  _80
REMARK   34  A    between atoms: _79  and  _82
REMARK   35  A    between atoms: _82  and  _83
REMARK   36  A    between atoms: _83  and  _84
REMARK   37  A    between atoms: _87  and  _89
REMARK   38  A    between atoms: _89  and  _90
REMARK   39  A    between atoms: _89  and  _92
REMARK   40  A    between atoms: _92  and  _93
REMARK   41  A    between atoms: _96  and  _98
REMARK   42  A    between atoms: _98  and  _99
REMARK   43  A    between atoms: _98  and  _101
REMARK   44  A    between atoms: _101  and  _102
REMARK   45  A    between atoms: _107  and  _108
REMARK   46  A    between atoms: _110  and  _112
REMARK   47  A    between atoms: _112  and  _113
REMARK   48  A    between atoms: _112  and  _115
REMARK   49  A    between atoms: _115  and  _116
REMARK   50  A    between atoms: _119  and  _121
REMARK   51  A    between atoms: _121  and  _122
REMARK   52  A    between atoms: _121  and  _124
REMARK   53  A    between atoms: _124  and  _125
REMARK   54  A    between atoms: _128  and  _130
REMARK   55  A    between atoms: _130  and  _131
REMARK   56  A    between atoms: _130  and  _133
REMARK   57  A    between atoms: _136  and  _138
REMARK   58  A    between atoms: _138  and  _139
REMARK   59  A    between atoms: _138  and  _141
REMARK   60  A    between atoms: _141  and  _142
REMARK   61  A    between atoms: _142  and  _143
REMARK   62  A    between atoms: _143  and  _144
REMARK   63  A    between atoms: _153  and  _155
REMARK   64  A    between atoms: _155  and  _156
REMARK   65  A    between atoms: _155  and  _158
REMARK   66  A    between atoms: _158  and  _159
REMARK   67  A    between atoms: _164  and  _166
REMARK   68  A    between atoms: _166  and  _167
REMARK   69  A    between atoms: _166  and  _169
REMARK   70  A    between atoms: _169  and  _170
REMARK   71  A    between atoms: _170  and  _171
REMARK   72  A    between atoms: _174  and  _176
REMARK   73  A    between atoms: _176  and  _177
REMARK   74  A    between atoms: _176  and  _179
REMARK   75  A    between atoms: _179  and  _180
REMARK   76  A    between atoms: _180  and  _181
REMARK   77  A    between atoms: _181  and  _182
REMARK   78  A    between atoms: _182  and  _183
REMARK   79  A    between atoms: _187  and  _189
REMARK   80  A    between atoms: _189  and  _190
REMARK   81  A    between atoms: _192  and  _194
REMARK   82  A    between atoms: _194  and  _195
REMARK   83  A    between atoms: _194  and  _197
REMARK   84  A    between atoms: _200  and  _202
REMARK   85  A    between atoms: _202  and  _203
REMARK   86  A    between atoms: _202  and  _205
REMARK   87  A    between atoms: _205  and  _206
REMARK   88  A    between atoms: _208  and  _210
REMARK   89  A    between atoms: _210  and  _211
REMARK   90  A    between atoms: _210  and  _213
REMARK   91  A    between atoms: _213  and  _214
REMARK   92  A    between atoms: _216  and  _218
REMARK   93  A    between atoms: _218  and  _219
REMARK   94  A    between atoms: _218  and  _221
REMARK   95  A    between atoms: _221  and  _222
REMARK   96  A    between atoms: _228  and  _230
REMARK   97  A    between atoms: _230  and  _231
REMARK   98  A    between atoms: _230  and  _233
REMARK   99  A    between atoms: _233  and  _234
REMARK  100  A    between atoms: _237  and  _239
REMARK  101  A    between atoms: _239  and  _240
REMARK  102  A    between atoms: _239  and  _242
REMARK  103  A    between atoms: _242  and  _243
REMARK  104  A    between atoms: _246  and  _248
REMARK  105  A    between atoms: _248  and  _249
REMARK  106  A    between atoms: _248  and  _251
REMARK  107  A    between atoms: _251  and  _252
REMARK  108  A    between atoms: _255  and  _257
REMARK  109  A    between atoms: _257  and  _258
REMARK  110  A    between atoms: _257  and  _260
REMARK  111  A    between atoms: _260  and  _261
REMARK  112  A    between atoms: _261  and  _262
REMARK  113  A    between atoms: _264  and  _266
REMARK  114  A    between atoms: _266  and  _267
REMARK  115  A    between atoms: _266  and  _269
REMARK  116  A    between atoms: _269  and  _270
REMARK  117  A    between atoms: _276  and  _278
REMARK  118  A    between atoms: _278  and  _279
REMARK  119  A    between atoms: _278  and  _281
REMARK  120  A    between atoms: _283  and  _285
REMARK  121  A    between atoms: _285  and  _286
REMARK  122  A    between atoms: _289  and  _291
REMARK  123  A    between atoms: _291  and  _292
REMARK  124  A    between atoms: _294  and  _296
REMARK  125  A    between atoms: _296  and  _297
REMARK  126  A    between atoms: _296  and  _299
REMARK  127  A    between atoms: _299  and  _300
REMARK  128  A    between atoms: _300  and  _301
REMARK  129  A    between atoms: _304  and  _306
REMARK  130  A    between atoms: _306  and  _307
REMARK  131  A    between atoms: _306  and  _309
REMARK  132  A    between atoms: _309  and  _310
REMARK  133  A    between atoms: _313  and  _315
REMARK  134  A    between atoms: _315  and  _316
REMARK  135  A    between atoms: _319  and  _321
REMARK  136  A    between atoms: _321  and  _322
REMARK  137  A    between atoms: _321  and  _324
REMARK  138  A    between atoms: _324  and  _325
REMARK  139  A    between atoms: _325  and  _448
REMARK  140  A    between atoms: _326  and  _328
REMARK  141  A    between atoms: _328  and  _329
REMARK  142  A    between atoms: _328  and  _331
REMARK  143  A    between atoms: _331  and  _332
REMARK  144  A    between atoms: _332  and  _333
REMARK  145  A    between atoms: _338  and  _340
REMARK  146  A    between atoms: _340  and  _341
REMARK  147  A    between atoms: _343  and  _345
REMARK  148  A    between atoms: _345  and  _346
REMARK  149  A    between atoms: _345  and  _348
REMARK  150  A    between atoms: _348  and  _349
REMARK  151  A    between atoms: _352  and  _354
REMARK  152  A    between atoms: _354  and  _355
REMARK  153  A    between atoms: _354  and  _357
REMARK  154  A    between atoms: _357  and  _358
REMARK  155  A    between atoms: _360  and  _362
REMARK  156  A    between atoms: _362  and  _363
REMARK  157  A    between atoms: _365  and  _367
REMARK  158  A    between atoms: _367  and  _368
REMARK  159  A    between atoms: _370  and  _372
REMARK  160  A    between atoms: _372  and  _373
REMARK  161  A    between atoms: _372  and  _375
REMARK  162  A    between atoms: _375  and  _376
REMARK  163  A    between atoms: _381  and  _383
REMARK  164  A    between atoms: _383  and  _384
REMARK  165  A    between atoms: _383  and  _386
REMARK  166  A    between atoms: _386  and  _387
REMARK  167  A    between atoms: _390  and  _392
REMARK  168  A    between atoms: _392  and  _393
REMARK  169  A    between atoms: _392  and  _395
REMARK  170  A    between atoms: _398  and  _400
REMARK  171  A    between atoms: _400  and  _401
REMARK  172  A    between atoms: _400  and  _403
REMARK  173  A    between atoms: _403  and  _404
REMARK  174  A    between atoms: _406  and  _408
REMARK  175  A    between atoms: _408  and  _409
REMARK  176  A    between atoms: _408  and  _411
REMARK  177  A    between atoms: _411  and  _412
REMARK  178  A    between atoms: _422  and  _424
REMARK  179  A    between atoms: _424  and  _425
REMARK  180  A    between atoms: _427  and  _429
REMARK  181  A    between atoms: _429  and  _430
REMARK  182  A    between atoms: _429  and  _432
REMARK  183  A    between atoms: _432  and  _433
REMARK  184  A    between atoms: _433  and  _434
REMARK  185  A    between atoms: _437  and  _439
REMARK  186  A    between atoms: _439  and  _440
REMARK  187  A    between atoms: _442  and  _444
REMARK  188  A    between atoms: _444  and  _445
REMARK  189  A    between atoms: _444  and  _447
REMARK  190  A    between atoms: _447  and  _448
REMARK  191  A    between atoms: _449  and  _451
REMARK  192  A    between atoms: _451  and  _452
REMARK  193  A    between atoms: _455  and  _457
REMARK  194  A    between atoms: _457  and  _458
REMARK  195  A    between atoms: _457  and  _460
REMARK  196  A    between atoms: _460  and  _461
REMARK  197  A    between atoms: _461  and  _462
REMARK  198  A    between atoms: _462  and  _463
REMARK  199  A    between atoms: _472  and  _474
REMARK  200  A    between atoms: _474  and  _475
REMARK  201  A    between atoms: _474  and  _477
REMARK  202  A    between atoms: _477  and  _478
REMARK  203  A    between atoms: _478  and  _479
REMARK  204  A    between atoms: _479  and  _480
REMARK  205  A    between atoms: _480  and  _481
REMARK  206  A    between atoms: _485  and  _487
REMARK  207  A    between atoms: _487  and  _488
REMARK  208  A    between atoms: _487  and  _490
REMARK  209  A    between atoms: _490  and  _491
REMARK  210  A    between atoms: _496  and  _497
REMARK  211  A    between atoms: _499  and  _501
REMARK  212  A    between atoms: _501  and  _502
REMARK  213  A    between atoms: _504  and  _506
REMARK  214  A    between atoms: _506  and  _507
REMARK  215  A    between atoms: _506  and  _509
REMARK  216  A    between atoms: _509  and  _510
REMARK  217  A    between atoms: _513  and  _515
REMARK  218  A    between atoms: _515  and  _516
REMARK  219  A    between atoms: _515  and  _518
REMARK  220  A    between atoms: _518  and  _519
REMARK  221  A    between atoms: _524  and  _525
REMARK  222  A    between atoms: _527  and  _529
REMARK  223  A    between atoms: _529  and  _530
REMARK  224  A    between atoms: _529  and  _532
REMARK  225  A    between atoms: _532  and  _533
REMARK                            x       y       z     vdW  Elec       q    Type
REMARK                         _______ _______ _______ _____ _____    ______ ____
ROOT
ATOM      1  CA  VAL A   1       4.802  -5.484  32.615  0.00  0.00    +0.133 C 
ENDROOT
BRANCH   1   2
ATOM      2  CB  VAL A   1       6.247  -4.918  32.452  0.00  0.00    +0.023 C 
ATOM      3  CG2 VAL A   1       7.185  -5.990  31.901  0.00  0.00    +0.002 C 
ATOM      4  CG1 VAL A   1       6.242  -3.720  31.532  0.00  0.00    +0.002 C 
ENDBRANCH   1   2
BRANCH   1   5
ATOM      5  N   VAL A   1       4.830  -6.678  33.438  0.00  0.00    -0.239 NA
ATOM      6  H   VAL A   1       5.414  -7.486  33.142  0.00  0.00    +0.142 HD
ENDBRANCH   1   5
BRANCH   1   7
ATOM      7  C   VAL A   1       4.224  -5.909  31.267  0.00  0.00    +0.224 C 
ATOM      8  O   VAL A   1       4.327  -7.065  30.884  0.00  0.00    -0.287 OA
ENDBRANCH   1   7
TORSDOF 3
REMARK  Name = ../refined-set-2016/2vvc/2vvc_pocket.pdb
REMARK  225 active torsions:
REMARK  status: ('A' for Active; 'I' for Inactive)
REMARK    1  A    between atoms: _1  and  _5
REMARK    2  A    between atoms: _5  and  _6
REMARK    3  A    between atoms: _5  and  _8
REMARK    4  A    between atoms: _8  and  _9
REMARK    5  A    between atoms: _12  and  _14
REMARK    6  A    between atoms: _14  and  _15
REMARK    7  A    between atoms: _14  and  _17
REMARK    8  A    between atoms: _20  and  _22
REMARK    9  A    between atoms: _22  and  _23
REMARK   10  A    between atoms: _22  and  _25
REMARK   11  A    between atoms: _25  and  _26
REMARK   12  A    between atoms: _31  and  _33
REMARK   13  A    between atoms: _33  and  _34
REMARK   14  A    between atoms: _33  and  _36
REMARK   15  A    between atoms: _36  and  _37
REMARK   16  A    between atoms: _37  and  _38
REMARK   17  A    between atoms: _43  and  _45
REMARK   18  A    between atoms: _45  and  _46
REMARK   19  A    between atoms: _45  and  _48
REMARK   20  A    between atoms: _48  and  _49
REMARK   21  A    between atoms: _55  and  _57
REMARK   22  A    between atoms: _57  and  _58
REMARK   23  A    between atoms: _57  and  _60
REMARK   24  A    between atoms: _60  and  _61
REMARK   25  A    between atoms: _64  and  _66
REMARK   26  A    between atoms: _66  and  _67
REMARK   27  A    between atoms: _66  and  _69
REMARK   28  A    between atoms: _69  and  _70
REMARK   29  A    between atoms: _70  and  _71
REMARK   30  A    between atoms: _71  and  _72
REMARK   31  A    between atoms: _72  and  _73
REMARK   32  A    between atoms: _77  and  _79
REMARK   33  A    between atoms: _79  and  _80
REMARK   34  A    between atoms: _79  and  _82
REMARK   35  A    between atoms: _82  and  _83
REMARK   36  A    between atoms: _83  and  _84
REMARK   37  A    between atoms: _87  and  _89
REMARK   38  A    between atoms: _89  and  _90
REMARK   39  A    between atoms: _89  and  _92
REMARK   40  A    between atoms: _92  and  _93
REMARK   41  A    between atoms: _96  and  _98
REMARK   42  A    between atoms: _98  and  _99
REMARK   43  A    between atoms: _98  and  _101
REMARK   44  A    between atoms: _101  and  _102
REMARK   45  A    between atoms: _107  and  _108
REMARK   46  A    between atoms: _110  and  _112
REMARK   47  A    between atoms: _112  and  _113
REMARK   48  A    between atoms: _112  and  _115
REMARK   49  A    between atoms: _115  and  _116
REMARK   50  A    between atoms: _119  and  _121
REMARK   51  A    between atoms: _121  and  _122
REMARK   52  A    between atoms: _121  and  _124
REMARK   53  A    between atoms: _124  and  _125
REMARK   54  A    between atoms: _128  and  _130
REMARK   55  A    between atoms: _130  and  _131
REMARK   56  A    between atoms: _130  and  _133
REMARK   57  A    between atoms: _136  and  _138
REMARK   58  A    between atoms: _138  and  _139
REMARK   59  A    between atoms: _138  and  _141
REMARK   60  A    between atoms: _141  and  _142
REMARK   61  A    between atoms: _142  and  _143
REMARK   62  A    between atoms: _143  and  _144
REMARK   63  A    between atoms: _153  and  _155
REMARK   64  A    between atoms: _155  and  _156
REMARK   65  A    between atoms: _155  and  _158
REMARK   66  A    between atoms: _158  and  _159
REMARK   67  A    between atoms: _164  and  _166
REMARK   68  A    between atoms: _166  and  _167
REMARK   69  A    between atoms: _166  and  _169
REMARK   70  A    between atoms: _169  and  _170
REMARK   71  A    between atoms: _170  and  _171
REMARK   72  A    between atoms: _174  and  _176
REMARK   73  A    between atoms: _176  and  _177
REMARK   74  A    between atoms: _176  and  _179
REMARK   75  A    between atoms: _179  and  _180
REMARK   76  A    between atoms: _180  and  _181
REMARK   77  A    between atoms: _181  and  _182
REMARK   78  A    between atoms: _182  and  _183
REMARK   79  A    between atoms: _187  and  _189
REMARK   80  A    between atoms: _189  and  _190
REMARK   81  A    between atoms: _192  and  _194
REMARK   82  A    between atoms: _194  and  _195
REMARK   83  A    between atoms: _194  and  _197
REMARK   84  A    between atoms: _200  and  _202
REMARK   85  A    between atoms: _202  and  _203
REMARK   86  A    between atoms: _202  and  _205
REMARK   87  A    between atoms: _205  and  _206
REMARK   88  A    between atoms: _208  and  _210
REMARK   89  A    between atoms: _210  and  _211
REMARK   90  A    between atoms: _210  and  _213
REMARK   91  A    between atoms: _213  and  _214
REMARK   92  A    between atoms: _216  and  _218
REMARK   93  A    between atoms: _218  and  _219
REMARK   94  A    between atoms: _218  and  _221
REMARK   95  A    between atoms: _221  and  _222
REMARK   96  A    between atoms: _228  and  _230
REMARK   97  A    between atoms: _230  and  _231
REMARK   98  A    between atoms: _230  and  _233
REMARK   99  A    between atoms: _233  and  _234
REMARK  100  A    between atoms: _237  and  _239
REMARK  101  A    between atoms: _239  and  _240
REMARK  102  A    between atoms: _239  and  _242
REMARK  103  A    between atoms: _242  and  _243
REMARK  104  A    between atoms: _246  and  _248
REMARK  105  A    between atoms: _248  and  _249
REMARK  106  A    between atoms: _248  and  _251
REMARK  107  A    between atoms: _251  and  _252
REMARK  108  A    between atoms: _255  and  _257
REMARK  109  A    between atoms: _257  and  _258
REMARK  110  A    between atoms: _257  and  _260
REMARK  111  A    between atoms: _260  and  _261
REMARK  112  A    between atoms: _261  and  _262
REMARK  113  A    between atoms: _264  and  _266
REMARK  114  A    between atoms: _266  and  _267
REMARK  115  A    between atoms: _266  and  _269
REMARK  116  A    between atoms: _269  and  _270
REMARK  117  A    between atoms: _276  and  _278
REMARK  118  A    between atoms: _278  and  _279
REMARK  119  A    between atoms: _278  and  _281
REMARK  120  A    between atoms: _283  and  _285
REMARK  121  A    between atoms: _285  and  _286
REMARK  122  A    between atoms: _289  and  _291
REMARK  123  A    between atoms: _291  and  _292
REMARK  124  A    between atoms: _294  and  _296
REMARK  125  A    between atoms: _296  and  _297
REMARK  126  A    between atoms: _296  and  _299
REMARK  127  A    between atoms: _299  and  _300
REMARK  128  A    between atoms: _300  and  _301
REMARK  129  A    between atoms: _304  and  _306
REMARK  130  A    between atoms: _306  and  _307
REMARK  131  A    between atoms: _306  and  _309
REMARK  132  A    between atoms: _309  and  _310
REMARK  133  A    between atoms: _313  and  _315
REMARK  134  A    between atoms: _315  and  _316
REMARK  135  A    between atoms: _319  and  _321
REMARK  136  A    between atoms: _321  and  _322
REMARK  137  A    between atoms: _321  and  _324
REMARK  138  A    between atoms: _324  and  _325
REMARK  139  A    between atoms: _325  and  _448
REMARK  140  A    between atoms: _326  and  _328
REMARK  141  A    between atoms: _328  and  _329
REMARK  142  A    between atoms: _328  and  _331
REMARK  143  A    between atoms: _331  and  _332
REMARK  144  A    between atoms: _332  and  _333
REMARK  145  A    between atoms: _338  and  _340
REMARK  146  A    between atoms: _340  and  _341
REMARK  147  A    between atoms: _343  and  _345
REMARK  148  A    between atoms: _345  and  _346
REMARK  149  A    between atoms: _345  and  _348
REMARK  150  A    between atoms: _348  and  _349
REMARK  151  A    between atoms: _352  and  _354
REMARK  152  A    between atoms: _354  and  _355
REMARK  153  A    between atoms: _354  and  _357
REMARK  154  A    between atoms: _357  and  _358
REMARK  155  A    between atoms: _360  and  _362
REMARK  156  A    between atoms: _362  and  _363
REMARK  157  A    between atoms: _365  and  _367
REMARK  158  A    between atoms: _367  and  _368
REMARK  159  A    between atoms: _370  and  _372
REMARK  160  A    between atoms: _372  and  _373
REMARK  161  A    between atoms: _372  and  _375
REMARK  162  A    between atoms: _375  and  _376
REMARK  163  A    between atoms: _381  and  _383
REMARK  164  A    between atoms: _383  and  _384
REMARK  165  A    between atoms: _383  and  _386
REMARK  166  A    between atoms: _386  and  _387
REMARK  167  A    between atoms: _390  and  _392
REMARK  168  A    between atoms: _392  and  _393
REMARK  169  A    between atoms: _392  and  _395
REMARK  170  A    between atoms: _398  and  _400
REMARK  171  A    between atoms: _400  and  _401
REMARK  172  A    between atoms: _400  and  _403
REMARK  173  A    between atoms: _403  and  _404
REMARK  174  A    between atoms: _406  and  _408
REMARK  175  A    between atoms: _408  and  _409
REMARK  176  A    between atoms: _408  and  _411
REMARK  177  A    between atoms: _411  and  _412
REMARK  178  A    between atoms: _422  and  _424
REMARK  179  A    between atoms: _424  and  _425
REMARK  180  A    between atoms: _427  and  _429
REMARK  181  A    between atoms: _429  and  _430
REMARK  182  A    between atoms: _429  and  _432
REMARK  183  A    between atoms: _432  and  _433
REMARK  184  A    between atoms: _433  and  _434
REMARK  185  A    between atoms: _437  and  _439
REMARK  186  A    between atoms: _439  and  _440
REMARK  187  A    between atoms: _442  and  _444
REMARK  188  A    between atoms: _444  and  _445
REMARK  189  A    between atoms: _444  and  _447
REMARK  190  A    between atoms: _447  and  _448
REMARK  191  A    between atoms: _449  and  _451
REMARK  192  A    between atoms: _451  and  _452
REMARK  193  A    between atoms: _455  and  _457
REMARK  194  A    between atoms: _457  and  _458
REMARK  195  A    between atoms: _457  and  _460
REMARK  196  A    between atoms: _460  and  _461
REMARK  197  A    between atoms: _461  and  _462
REMARK  198  A    between atoms: _462  and  _463
REMARK  199  A    between atoms: _472  and  _474
REMARK  200  A    between atoms: _474  and  _475
REMARK  201  A    between atoms: _474  and  _477
REMARK  202  A    between atoms: _477  and  _478
REMARK  203  A    between atoms: _478  and  _479
REMARK  204  A    between atoms: _479  and  _480
REMARK  205  A    between atoms: _480  and  _481
REMARK  206  A    between atoms: _485  and  _487
REMARK  207  A    between atoms: _487  and  _488
REMARK  208  A    between atoms: _487  and  _490
REMARK  209  A    between atoms: _490  and  _491
REMARK  210  A    between atoms: _496  and  _497
REMARK  211  A    between atoms: _499  and  _501
REMARK  212  A    between atoms: _501  and  _502
REMARK  213  A    between atoms: _504  and  _506
REMARK  214  A    between atoms: _506  and  _507
REMARK  215  A    between atoms: _506  and  _509
REMARK  216  A    between atoms: _509  and  _510
REMARK  217  A    between atoms: _513  and  _515
REMARK  218  A    between atoms: _515  and  _516
REMARK  219  A    between atoms: _515  and  _518
REMARK  220  A    between atoms: _518  and  _519
REMARK  221  A    between atoms: _524  and  _525
REMARK  222  A    between atoms: _527  and  _529
REMARK  223  A    between atoms: _529  and  _530
REMARK  224  A    between atoms: _529  and  _532
REMARK  225  A    between atoms: _532  and  _533
REMARK                            x       y       z     vdW  Elec       q    Type
REMARK                         _______ _______ _______ _____ _____    ______ ____
ROOT
ATOM      1  NE  ARG A   1      11.811   1.110  18.504  0.00  0.00    -0.265 N 
ATOM      2  HE  ARG A   1      10.850   1.434  18.271  0.00  0.00    +0.259 HD
ATOM      3  CZ  ARG A   1      12.827   1.847  18.077  0.00  0.00    +0.342 C 
ATOM      4  NH2 ARG A   1      14.072   1.485  18.338  0.00  0.00    -0.292 N 
ATOM      5 HH21 ARG A   1      14.258   0.618  18.881  0.00  0.00    +0.255 HD
ATOM      6 HH22 ARG A   1      14.865   2.067  18.000  0.00  0.00    +0.255 HD
ATOM      7  NH1 ARG A   1      12.598   2.949  17.385  0.00  0.00    -0.292 N 
ATOM      8 HH11 ARG A   1      11.621   3.238  17.176  0.00  0.00    +0.255 HD
ATOM      9 HH12 ARG A   1      13.395   3.528  17.050  0.00  0.00    +0.255 HD
ENDROOT
BRANCH   1  10
ATOM     10  CD  ARG A   1      11.941  -0.126  19.279  0.00  0.00    +0.174 C 
BRANCH  10  11
ATOM     11  CG  ARG A   1      10.573  -0.731  19.568  0.00  0.00    +0.045 C 
BRANCH  11  12
ATOM     12  CB  ARG A   1      10.701  -2.115  20.195  0.00  0.00    +0.029 C 
BRANCH  12  13
ATOM     13  CA  ARG A   1       9.382  -2.886  20.375  0.00  0.00    +0.133 C 
BRANCH  13  14
ATOM     14  N   ARG A   1       8.409  -2.120  21.179  0.00  0.00    -0.239 NA
ATOM     15  H   ARG A   1       8.653  -1.164  21.507  0.00  0.00    +0.142 HD
ENDBRANCH  13  14
BRANCH  13  16
ATOM     16  C   ARG A   1       9.679  -4.244  21.005  0.00  0.00    +0.224 C 
ATOM     17  O   ARG A   1       9.721  -4.376  22.229  0.00  0.00    -0.287 OA
ENDBRANCH  13  16
ENDBRANCH  12  13
ENDBRANCH  11  12
ENDBRANCH  10  11
ENDBRANCH   1  10
TORSDOF 6
REMARK  Name = ../refined-set-2016/2vvc/2vvc_pocket.pdb
REMARK  225 active torsions:
REMARK  status: ('A' for Active; 'I' for Inactive)
REMARK    1  A    between atoms: _1  and  _5
REMARK    2  A    between atoms: _5  and  _6
REMARK    3  A    between atoms: _5  and  _8
REMARK    4  A    between atoms: _8  and  _9
REMARK    5  A    between atoms: _12  and  _14
REMARK    6  A    between atoms: _14  and  _15
REMARK    7  A    between atoms: _14  and  _17
REMARK    8  A    between atoms: _20  and  _22
REMARK    9  A    between atoms: _22  and  _23
REMARK   10  A    between atoms: _22  and  _25
REMARK   11  A    between atoms: _25  and  _26
REMARK   12  A    between atoms: _31  and  _33
REMARK   13  A    between atoms: _33  and  _34
REMARK   14  A    between atoms: _33  and  _36
REMARK   15  A    between atoms: _36  and  _37
REMARK   16  A    between atoms: _37  and  _38
REMARK   17  A    between atoms: _43  and  _45
REMARK   18  A    between atoms: _45  and  _46
REMARK   19  A    between atoms: _45  and  _48
REMARK   20  A    between atoms: _48  and  _49
REMARK   21  A    between atoms: _55  and  _57
REMARK   22  A    between atoms: _57  and  _58
REMARK   23  A    between atoms: _57  and  _60
REMARK   24  A    between atoms: _60  and  _61
REMARK   25  A    between atoms: _64  and  _66
REMARK   26  A    between atoms: _66  and  _67
REMARK   27  A    between atoms: _66  and  _69
REMARK   28  A    between atoms: _69  and  _70
REMARK   29  A    between atoms: _70  and  _71
REMARK   30  A    between atoms: _71  and  _72
REMARK   31  A    between atoms: _72  and  _73
REMARK   32  A    between atoms: _77  and  _79
REMARK   33  A    between atoms: _79  and  _80
REMARK   34  A    between atoms: _79  and  _82
REMARK   35  A    between atoms: _82  and  _83
REMARK   36  A    between atoms: _83  and  _84
REMARK   37  A    between atoms: _87  and  _89
REMARK   38  A    between atoms: _89  and  _90
REMARK   39  A    between atoms: _89  and  _92
REMARK   40  A    between atoms: _92  and  _93
REMARK   41  A    between atoms: _96  and  _98
REMARK   42  A    between atoms: _98  and  _99
REMARK   43  A    between atoms: _98  and  _101
REMARK   44  A    between atoms: _101  and  _102
REMARK   45  A    between atoms: _107  and  _108
REMARK   46  A    between atoms: _110  and  _112
REMARK   47  A    between atoms: _112  and  _113
REMARK   48  A    between atoms: _112  and  _115
REMARK   49  A    between atoms: _115  and  _116
REMARK   50  A    between atoms: _119  and  _121
REMARK   51  A    between atoms: _121  and  _122
REMARK   52  A    between atoms: _121  and  _124
REMARK   53  A    between atoms: _124  and  _125
REMARK   54  A    between atoms: _128  and  _130
REMARK   55  A    between atoms: _130  and  _131
REMARK   56  A    between atoms: _130  and  _133
REMARK   57  A    between atoms: _136  and  _138
REMARK   58  A    between atoms: _138  and  _139
REMARK   59  A    between atoms: _138  and  _141
REMARK   60  A    between atoms: _141  and  _142
REMARK   61  A    between atoms: _142  and  _143
REMARK   62  A    between atoms: _143  and  _144
REMARK   63  A    between atoms: _153  and  _155
REMARK   64  A    between atoms: _155  and  _156
REMARK   65  A    between atoms: _155  and  _158
REMARK   66  A    between atoms: _158  and  _159
REMARK   67  A    between atoms: _164  and  _166
REMARK   68  A    between atoms: _166  and  _167
REMARK   69  A    between atoms: _166  and  _169
REMARK   70  A    between atoms: _169  and  _170
REMARK   71  A    between atoms: _170  and  _171
REMARK   72  A    between atoms: _174  and  _176
REMARK   73  A    between atoms: _176  and  _177
REMARK   74  A    between atoms: _176  and  _179
REMARK   75  A    between atoms: _179  and  _180
REMARK   76  A    between atoms: _180  and  _181
REMARK   77  A    between atoms: _181  and  _182
REMARK   78  A    between atoms: _182  and  _183
REMARK   79  A    between atoms: _187  and  _189
REMARK   80  A    between atoms: _189  and  _190
REMARK   81  A    between atoms: _192  and  _194
REMARK   82  A    between atoms: _194  and  _195
REMARK   83  A    between atoms: _194  and  _197
REMARK   84  A    between atoms: _200  and  _202
REMARK   85  A    between atoms: _202  and  _203
REMARK   86  A    between atoms: _202  and  _205
REMARK   87  A    between atoms: _205  and  _206
REMARK   88  A    between atoms: _208  and  _210
REMARK   89  A    between atoms: _210  and  _211
REMARK   90  A    between atoms: _210  and  _213
REMARK   91  A    between atoms: _213  and  _214
REMARK   92  A    between atoms: _216  and  _218
REMARK   93  A    between atoms: _218  and  _219
REMARK   94  A    between atoms: _218  and  _221
REMARK   95  A    between atoms: _221  and  _222
REMARK   96  A    between atoms: _228  and  _230
REMARK   97  A    between atoms: _230  and  _231
REMARK   98  A    between atoms: _230  and  _233
REMARK   99  A    between atoms: _233  and  _234
REMARK  100  A    between atoms: _237  and  _239
REMARK  101  A    between atoms: _239  and  _240
REMARK  102  A    between atoms: _239  and  _242
REMARK  103  A    between atoms: _242  and  _243
REMARK  104  A    between atoms: _246  and  _248
REMARK  105  A    between atoms: _248  and  _249
REMARK  106  A    between atoms: _248  and  _251
REMARK  107  A    between atoms: _251  and  _252
REMARK  108  A    between atoms: _255  and  _257
REMARK  109  A    between atoms: _257  and  _258
REMARK  110  A    between atoms: _257  and  _260
REMARK  111  A    between atoms: _260  and  _261
REMARK  112  A    between atoms: _261  and  _262
REMARK  113  A    between atoms: _264  and  _266
REMARK  114  A    between atoms: _266  and  _267
REMARK  115  A    between atoms: _266  and  _269
REMARK  116  A    between atoms: _269  and  _270
REMARK  117  A    between atoms: _276  and  _278
REMARK  118  A    between atoms: _278  and  _279
REMARK  119  A    between atoms: _278  and  _281
REMARK  120  A    between atoms: _283  and  _285
REMARK  121  A    between atoms: _285  and  _286
REMARK  122  A    between atoms: _289  and  _291
REMARK  123  A    between atoms: _291  and  _292
REMARK  124  A    between atoms: _294  and  _296
REMARK  125  A    between atoms: _296  and  _297
REMARK  126  A    between atoms: _296  and  _299
REMARK  127  A    between atoms: _299  and  _300
REMARK  128  A    between atoms: _300  and  _301
REMARK  129  A    between atoms: _304  and  _306
REMARK  130  A    between atoms: _306  and  _307
REMARK  131  A    between atoms: _306  and  _309
REMARK  132  A    between atoms: _309  and  _310
REMARK  133  A    between atoms: _313  and  _315
REMARK  134  A    between atoms: _315  and  _316
REMARK  135  A    between atoms: _319  and  _321
REMARK  136  A    between atoms: _321  and  _322
REMARK  137  A    between atoms: _321  and  _324
REMARK  138  A    between atoms: _324  and  _325
REMARK  139  A    between atoms: _325  and  _448
REMARK  140  A    between atoms: _326  and  _328
REMARK  141  A    between atoms: _328  and  _329
REMARK  142  A    between atoms: _328  and  _331
REMARK  143  A    between atoms: _331  and  _332
REMARK  144  A    between atoms: _332  and  _333
REMARK  145  A    between atoms: _338  and  _340
REMARK  146  A    between atoms: _340  and  _341
REMARK  147  A    between atoms: _343  and  _345
REMARK  148  A    between atoms: _345  and  _346
REMARK  149  A    between atoms: _345  and  _348
REMARK  150  A    between atoms: _348  and  _349
REMARK  151  A    between atoms: _352  and  _354
REMARK  152  A    between atoms: _354  and  _355
REMARK  153  A    between atoms: _354  and  _357
REMARK  154  A    between atoms: _357  and  _358
REMARK  155  A    between atoms: _360  and  _362
REMARK  156  A    between atoms: _362  and  _363
REMARK  157  A    between atoms: _365  and  _367
REMARK  158  A    between atoms: _367  and  _368
REMARK  159  A    between atoms: _370  and  _372
REMARK  160  A    between atoms: _372  and  _373
REMARK  161  A    between atoms: _372  and  _375
REMARK  162  A    between atoms: _375  and  _376
REMARK  163  A    between atoms: _381  and  _383
REMARK  164  A    between atoms: _383  and  _384
REMARK  165  A    between atoms: _383  and  _386
REMARK  166  A    between atoms: _386  and  _387
REMARK  167  A    between atoms: _390  and  _392
REMARK  168  A    between atoms: _392  and  _393
REMARK  169  A    between atoms: _392  and  _395
REMARK  170  A    between atoms: _398  and  _400
REMARK  171  A    between atoms: _400  and  _401
REMARK  172  A    between atoms: _400  and  _403
REMARK  173  A    between atoms: _403  and  _404
REMARK  174  A    between atoms: _406  and  _408
REMARK  175  A    between atoms: _408  and  _409
REMARK  176  A    between atoms: _408  and  _411
REMARK  177  A    between atoms: _411  and  _412
REMARK  178  A    between atoms: _422  and  _424
REMARK  179  A    between atoms: _424  and  _425
REMARK  180  A    between atoms: _427  and  _429
REMARK  181  A    between atoms: _429  and  _430
REMARK  182  A    between atoms: _429  and  _432
REMARK  183  A    between atoms: _432  and  _433
REMARK  184  A    between atoms: _433  and  _434
REMARK  185  A    between atoms: _437  and  _439
REMARK  186  A    between atoms: _439  and  _440
REMARK  187  A    between atoms: _442  and  _444
REMARK  188  A    between atoms: _444  and  _445
REMARK  189  A    between atoms: _444  and  _447
REMARK  190  A    between atoms: _447  and  _448
REMARK  191  A    between atoms: _449  and  _451
REMARK  192  A    between atoms: _451  and  _452
REMARK  193  A    between atoms: _455  and  _457
REMARK  194  A    between atoms: _457  and  _458
REMARK  195  A    between atoms: _457  and  _460
REMARK  196  A    between atoms: _460  and  _461
REMARK  197  A    between atoms: _461  and  _462
REMARK  198  A    between atoms: _462  and  _463
REMARK  199  A    between atoms: _472  and  _474
REMARK  200  A    between atoms: _474  and  _475
REMARK  201  A    between atoms: _474  and  _477
REMARK  202  A    between atoms: _477  and  _478
REMARK  203  A    between atoms: _478  and  _479
REMARK  204  A    between atoms: _479  and  _480
REMARK  205  A    between atoms: _480  and  _481
REMARK  206  A    between atoms: _485  and  _487
REMARK  207  A    between atoms: _487  and  _488
REMARK  208  A    between atoms: _487  and  _490
REMARK  209  A    between atoms: _490  and  _491
REMARK  210  A    between atoms: _496  and  _497
REMARK  211  A    between atoms: _499  and  _501
REMARK  212  A    between atoms: _501  and  _502
REMARK  213  A    between atoms: _504  and  _506
REMARK  214  A    between atoms: _506  and  _507
REMARK  215  A    between atoms: _506  and  _509
REMARK  216  A    between atoms: _509  and  _510
REMARK  217  A    between atoms: _513  and  _515
REMARK  218  A    between atoms: _515  and  _516
REMARK  219  A    between atoms: _515  and  _518
REMARK  220  A    between atoms: _518  and  _519
REMARK  221  A    between atoms: _524  and  _525
REMARK  222  A    between atoms: _527  and  _529
REMARK  223  A    between atoms: _529  and  _530
REMARK  224  A    between atoms: _529  and  _532
REMARK  225  A    between atoms: _532  and  _533
REMARK                            x       y       z     vdW  Elec       q    Type
REMARK                         _______ _______ _______ _____ _____    ______ ____
ROOT
ATOM      1  C   GLU A   2      15.814  -1.889  19.720  0.00  0.00    +0.241 C 
ATOM      2  O   GLU A   2      15.401  -0.717  19.662  0.00  0.00    -0.273 OA
ATOM      3  N   LYS A   3      16.188  -2.566  18.636  0.00  0.00    -0.297 N 
ATOM      4  H   LYS A   3      16.474  -3.561  18.736  0.00  0.00    +0.150 HD
ENDROOT
BRANCH   3   5
ATOM      5  CA  LYS A   3      16.208  -1.950  17.308  0.00  0.00    +0.149 C 
BRANCH   5   6
ATOM      6  C   LYS A   3      15.212  -2.625  16.353  0.00  0.00    +0.241 C 
ATOM      7  N   GLY A   4      14.147  -3.187  16.906  0.00  0.00    -0.296 N 
ATOM      8  H   GLY A   4      14.040  -3.141  17.939  0.00  0.00    +0.150 HD
ATOM      9  O   LYS A   3      15.411  -2.639  15.145  0.00  0.00    -0.273 OA
BRANCH   7  10
ATOM     10  CA  GLY A   4      13.121  -3.866  16.128  0.00  0.00    +0.163 C 
BRANCH  10  11
ATOM     11  C   GLY A   4      11.821  -3.086  16.109  0.00  0.00    +0.229 C 
ATOM     12  O   GLY A   4      11.745  -1.966  16.621  0.00  0.00    -0.286 OA
ENDBRANCH  10  11
ENDBRANCH   7  10
ENDBRANCH   5   6
BRANCH   5  13
ATOM     13  CB  LYS A   3      17.631  -1.978  16.707  0.00  0.00    +0.029 C 
BRANCH  13  14
ATOM     14  CG  LYS A   3      18.665  -1.088  17.414  0.00  0.00    +0.000 C 
BRANCH  14  15
ATOM     15  CD  LYS A   3      19.612  -1.881  18.305  0.00  0.00    -0.024 C 
BRANCH  15  16
ATOM     16  CE  LYS A   3      20.801  -1.043  18.743  0.00  0.00    -0.086 C 
BRANCH  16  17
ATOM     17  NZ  LYS A   3      21.794  -1.863  19.486  0.00  0.00    +0.380 N 
ATOM     18  HZ1 LYS A   3      21.344  -2.268  20.332  0.00  0.00    -0.089 HD
ATOM     19  HZ2 LYS A   3      22.594  -1.262  19.771  0.00  0.00    -0.089 HD
ATOM     20  HZ3 LYS A   3      22.136  -2.630  18.873  0.00  0.00    -0.089 HD
ENDBRANCH  16  17
ENDBRANCH  15  16
ENDBRANCH  14  15
ENDBRANCH  13  14
ENDBRANCH   5  13
ENDBRANCH   3   5
BRANCH   1  21
ATOM     21  CA  GLU A   2      15.922  -2.624  21.084  0.00  0.00    +0.149 C 
BRANCH  21  23
ATOM     22  C   HIS A   1      14.358  -4.394  20.463  0.00  0.00    +0.239 C 
ATOM     23  N   GLU A   2      15.479  -4.030  21.081  0.00  0.00    -0.297 N 
ATOM     24  H   GLU A   2      16.051  -4.748  21.569  0.00  0.00    +0.150 HD
ATOM     25  O   HIS A   1      13.643  -3.582  19.901  0.00  0.00    -0.274 OA
BRANCH  22  26
ATOM     26  CA  HIS A   1      13.970  -5.867  20.448  0.00  0.00    +0.151 C 
BRANCH  26  27
ATOM     27  N   HIS A   1      12.527  -5.893  20.255  0.00  0.00    -0.238 NA
ATOM     28  H   HIS A   1      12.085  -5.070  19.797  0.00  0.00    +0.142 HD
ENDBRANCH  26  27
BRANCH  26  29
ATOM     29  CB  HIS A   1      14.685  -6.574  19.293  0.00  0.00    +0.074 C 
BRANCH  29  30
ATOM     30  CG  HIS A   1      16.174  -6.442  19.338  0.00  0.00    +0.082 A 
ATOM     31  CD2 HIS A   1      17.107  -7.121  20.047  0.00  0.00    +0.115 A 
ATOM     32  NE2 HIS A   1      18.332  -6.595  19.713  0.00  0.00    -0.221 NA
ATOM     33  CE1 HIS A   1      18.157  -5.625  18.834  0.00  0.00    +0.199 A 
ATOM     34  ND1 HIS A   1      16.864  -5.517  18.584  0.00  0.00    -0.227 NA
ENDBRANCH  29  30
ENDBRANCH  26  29
ENDBRANCH  22  26
ENDBRANCH  21  23
BRANCH  21  35
ATOM     35  CB  GLU A   2      17.359  -2.488  21.641  0.00  0.00    +0.041 C 
BRANCH  35  36
ATOM     36  CG  GLU A   2      17.775  -1.038  21.818  0.00  0.00    +0.116 C 
BRANCH  36  37
ATOM     37  CD  GLU A   2      19.133  -0.867  22.475  0.00  0.00    +0.365 C 
ATOM     38  OE2 GLU A   2      19.447  -1.632  23.410  0.00  0.00    -0.246 OA
ATOM     39  OE1 GLU A   2      19.877   0.056  22.069  0.00  0.00    -0.246 OA
ENDBRANCH  36  37
ENDBRANCH  35  36
ENDBRANCH  21  35
ENDBRANCH   1  21
TORSDOF 18
REMARK  Name = ../refined-set-2016/2vvc/2vvc_pocket.pdb
REMARK  225 active torsions:
REMARK  status: ('A' for Active; 'I' for Inactive)
REMARK    1  A    between atoms: _1  and  _5
REMARK    2  A    between atoms: _5  and  _6
REMARK    3  A    between atoms: _5  and  _8
REMARK    4  A    between atoms: _8  and  _9
REMARK    5  A    between atoms: _12  and  _14
REMARK    6  A    between atoms: _14  and  _15
REMARK    7  A    between atoms: _14  and  _17
REMARK    8  A    between atoms: _20  and  _22
REMARK    9  A    between atoms: _22  and  _23
REMARK   10  A    between atoms: _22  and  _25
REMARK   11  A    between atoms: _25  and  _26
REMARK   12  A    between atoms: _31  and  _33
REMARK   13  A    between atoms: _33  and  _34
REMARK   14  A    between atoms: _33  and  _36
REMARK   15  A    between atoms: _36  and  _37
REMARK   16  A    between atoms: _37  and  _38
REMARK   17  A    between atoms: _43  and  _45
REMARK   18  A    between atoms: _45  and  _46
REMARK   19  A    between atoms: _45  and  _48
REMARK   20  A    between atoms: _48  and  _49
REMARK   21  A    between atoms: _55  and  _57
REMARK   22  A    between atoms: _57  and  _58
REMARK   23  A    between atoms: _57  and  _60
REMARK   24  A    between atoms: _60  and  _61
REMARK   25  A    between atoms: _64  and  _66
REMARK   26  A    between atoms: _66  and  _67
REMARK   27  A    between atoms: _66  and  _69
REMARK   28  A    between atoms: _69  and  _70
REMARK   29  A    between atoms: _70  and  _71
REMARK   30  A    between atoms: _71  and  _72
REMARK   31  A    between atoms: _72  and  _73
REMARK   32  A    between atoms: _77  and  _79
REMARK   33  A    between atoms: _79  and  _80
REMARK   34  A    between atoms: _79  and  _82
REMARK   35  A    between atoms: _82  and  _83
REMARK   36  A    between atoms: _83  and  _84
REMARK   37  A    between atoms: _87  and  _89
REMARK   38  A    between atoms: _89  and  _90
REMARK   39  A    between atoms: _89  and  _92
REMARK   40  A    between atoms: _92  and  _93
REMARK   41  A    between atoms: _96  and  _98
REMARK   42  A    between atoms: _98  and  _99
REMARK   43  A    between atoms: _98  and  _101
REMARK   44  A    between atoms: _101  and  _102
REMARK   45  A    between atoms: _107  and  _108
REMARK   46  A    between atoms: _110  and  _112
REMARK   47  A    between atoms: _112  and  _113
REMARK   48  A    between atoms: _112  and  _115
REMARK   49  A    between atoms: _115  and  _116
REMARK   50  A    between atoms: _119  and  _121
REMARK   51  A    between atoms: _121  and  _122
REMARK   52  A    between atoms: _121  and  _124
REMARK   53  A    between atoms: _124  and  _125
REMARK   54  A    between atoms: _128  and  _130
REMARK   55  A    between atoms: _130  and  _131
REMARK   56  A    between atoms: _130  and  _133
REMARK   57  A    between atoms: _136  and  _138
REMARK   58  A    between atoms: _138  and  _139
REMARK   59  A    between atoms: _138  and  _141
REMARK   60  A    between atoms: _141  and  _142
REMARK   61  A    between atoms: _142  and  _143
REMARK   62  A    between atoms: _143  and  _144
REMARK   63  A    between atoms: _153  and  _155
REMARK   64  A    between atoms: _155  and  _156
REMARK   65  A    between atoms: _155  and  _158
REMARK   66  A    between atoms: _158  and  _159
REMARK   67  A    between atoms: _164  and  _166
REMARK   68  A    between atoms: _166  and  _167
REMARK   69  A    between atoms: _166  and  _169
REMARK   70  A    between atoms: _169  and  _170
REMARK   71  A    between atoms: _170  and  _171
REMARK   72  A    between atoms: _174  and  _176
REMARK   73  A    between atoms: _176  and  _177
REMARK   74  A    between atoms: _176  and  _179
REMARK   75  A    between atoms: _179  and  _180
REMARK   76  A    between atoms: _180  and  _181
REMARK   77  A    between atoms: _181  and  _182
REMARK   78  A    between atoms: _182  and  _183
REMARK   79  A    between atoms: _187  and  _189
REMARK   80  A    between atoms: _189  and  _190
REMARK   81  A    between atoms: _192  and  _194
REMARK   82  A    between atoms: _194  and  _195
REMARK   83  A    between atoms: _194  and  _197
REMARK   84  A    between atoms: _200  and  _202
REMARK   85  A    between atoms: _202  and  _203
REMARK   86  A    between atoms: _202  and  _205
REMARK   87  A    between atoms: _205  and  _206
REMARK   88  A    between atoms: _208  and  _210
REMARK   89  A    between atoms: _210  and  _211
REMARK   90  A    between atoms: _210  and  _213
REMARK   91  A    between atoms: _213  and  _214
REMARK   92  A    between atoms: _216  and  _218
REMARK   93  A    between atoms: _218  and  _219
REMARK   94  A    between atoms: _218  and  _221
REMARK   95  A    between atoms: _221  and  _222
REMARK   96  A    between atoms: _228  and  _230
REMARK   97  A    between atoms: _230  and  _231
REMARK   98  A    between atoms: _230  and  _233
REMARK   99  A    between atoms: _233  and  _234
REMARK  100  A    between atoms: _237  and  _239
REMARK  101  A    between atoms: _239  and  _240
REMARK  102  A    between atoms: _239  and  _242
REMARK  103  A    between atoms: _242  and  _243
REMARK  104  A    between atoms: _246  and  _248
REMARK  105  A    between atoms: _248  and  _249
REMARK  106  A    between atoms: _248  and  _251
REMARK  107  A    between atoms: _251  and  _252
REMARK  108  A    between atoms: _255  and  _257
REMARK  109  A    between atoms: _257  and  _258
REMARK  110  A    between atoms: _257  and  _260
REMARK  111  A    between atoms: _260  and  _261
REMARK  112  A    between atoms: _261  and  _262
REMARK  113  A    between atoms: _264  and  _266
REMARK  114  A    between atoms: _266  and  _267
REMARK  115  A    between atoms: _266  and  _269
REMARK  116  A    between atoms: _269  and  _270
REMARK  117  A    between atoms: _276  and  _278
REMARK  118  A    between atoms: _278  and  _279
REMARK  119  A    between atoms: _278  and  _281
REMARK  120  A    between atoms: _283  and  _285
REMARK  121  A    between atoms: _285  and  _286
REMARK  122  A    between atoms: _289  and  _291
REMARK  123  A    between atoms: _291  and  _292
REMARK  124  A    between atoms: _294  and  _296
REMARK  125  A    between atoms: _296  and  _297
REMARK  126  A    between atoms: _296  and  _299
REMARK  127  A    between atoms: _299  and  _300
REMARK  128  A    between atoms: _300  and  _301
REMARK  129  A    between atoms: _304  and  _306
REMARK  130  A    between atoms: _306  and  _307
REMARK  131  A    between atoms: _306  and  _309
REMARK  132  A    between atoms: _309  and  _310
REMARK  133  A    between atoms: _313  and  _315
REMARK  134  A    between atoms: _315  and  _316
REMARK  135  A    between atoms: _319  and  _321
REMARK  136  A    between atoms: _321  and  _322
REMARK  137  A    between atoms: _321  and  _324
REMARK  138  A    between atoms: _324  and  _325
REMARK  139  A    between atoms: _325  and  _448
REMARK  140  A    between atoms: _326  and  _328
REMARK  141  A    between atoms: _328  and  _329
REMARK  142  A    between atoms: _328  and  _331
REMARK  143  A    between atoms: _331  and  _332
REMARK  144  A    between atoms: _332  and  _333
REMARK  145  A    between atoms: _338  and  _340
REMARK  146  A    between atoms: _340  and  _341
REMARK  147  A    between atoms: _343  and  _345
REMARK  148  A    between atoms: _345  and  _346
REMARK  149  A    between atoms: _345  and  _348
REMARK  150  A    between atoms: _348  and  _349
REMARK  151  A    between atoms: _352  and  _354
REMARK  152  A    between atoms: _354  and  _355
REMARK  153  A    between atoms: _354  and  _357
REMARK  154  A    between atoms: _357  and  _358
REMARK  155  A    between atoms: _360  and  _362
REMARK  156  A    between atoms: _362  and  _363
REMARK  157  A    between atoms: _365  and  _367
REMARK  158  A    between atoms: _367  and  _368
REMARK  159  A    between atoms: _370  and  _372
REMARK  160  A    between atoms: _372  and  _373
REMARK  161  A    between atoms: _372  and  _375
REMARK  162  A    between atoms: _375  and  _376
REMARK  163  A    between atoms: _381  and  _383
REMARK  164  A    between atoms: _383  and  _384
REMARK  165  A    between atoms: _383  and  _386
REMARK  166  A    between atoms: _386  and  _387
REMARK  167  A    between atoms: _390  and  _392
REMARK  168  A    between atoms: _392  and  _393
REMARK  169  A    between atoms: _392  and  _395
REMARK  170  A    between atoms: _398  and  _400
REMARK  171  A    between atoms: _400  and  _401
REMARK  172  A    between atoms: _400  and  _403
REMARK  173  A    between atoms: _403  and  _404
REMARK  174  A    between atoms: _406  and  _408
REMARK  175  A    between atoms: _408  and  _409
REMARK  176  A    between atoms: _408  and  _411
REMARK  177  A    between atoms: _411  and  _412
REMARK  178  A    between atoms: _422  and  _424
REMARK  179  A    between atoms: _424  and  _425
REMARK  180  A    between atoms: _427  and  _429
REMARK  181  A    between atoms: _429  and  _430
REMARK  182  A    between atoms: _429  and  _432
REMARK  183  A    between atoms: _432  and  _433
REMARK  184  A    between atoms: _433  and  _434
REMARK  185  A    between atoms: _437  and  _439
REMARK  186  A    between atoms: _439  and  _440
REMARK  187  A    between atoms: _442  and  _444
REMARK  188  A    between atoms: _444  and  _445
REMARK  189  A    between atoms: _444  and  _447
REMARK  190  A    between atoms: _447  and  _448
REMARK  191  A    between atoms: _449  and  _451
REMARK  192  A    between atoms: _451  and  _452
REMARK  193  A    between atoms: _455  and  _457
REMARK  194  A    between atoms: _457  and  _458
REMARK  195  A    between atoms: _457  and  _460
REMARK  196  A    between atoms: _460  and  _461
REMARK  197  A    between atoms: _461  and  _462
REMARK  198  A    between atoms: _462  and  _463
REMARK  199  A    between atoms: _472  and  _474
REMARK  200  A    between atoms: _474  and  _475
REMARK  201  A    between atoms: _474  and  _477
REMARK  202  A    between atoms: _477  and  _478
REMARK  203  A    between atoms: _478  and  _479
REMARK  204  A    between atoms: _479  and  _480
REMARK  205  A    between atoms: _480  and  _481
REMARK  206  A    between atoms: _485  and  _487
REMARK  207  A    between atoms: _487  and  _488
REMARK  208  A    between atoms: _487  and  _490
REMARK  209  A    between atoms: _490  and  _491
REMARK  210  A    between atoms: _496  and  _497
REMARK  211  A    between atoms: _499  and  _501
REMARK  212  A    between atoms: _501  and  _502
REMARK  213  A    between atoms: _504  and  _506
REMARK  214  A    between atoms: _506  and  _507
REMARK  215  A    between atoms: _506  and  _509
REMARK  216  A    between atoms: _509  and  _510
REMARK  217  A    between atoms: _513  and  _515
REMARK  218  A    between atoms: _515  and  _516
REMARK  219  A    between atoms: _515  and  _518
REMARK  220  A    between atoms: _518  and  _519
REMARK  221  A    between atoms: _524  and  _525
REMARK  222  A    between atoms: _527  and  _529
REMARK  223  A    between atoms: _529  and  _530
REMARK  224  A    between atoms: _529  and  _532
REMARK  225  A    between atoms: _532  and  _533
REMARK                            x       y       z     vdW  Elec       q    Type
REMARK                         _______ _______ _______ _____ _____    ______ ____
ROOT
ATOM      1  CA  VAL A   1      10.110  -9.149  35.694  0.00  0.00    +0.133 C 
ENDROOT
BRANCH   1   2
ATOM      2  CB  VAL A   1      10.330  -7.715  35.140  0.00  0.00    +0.023 C 
ATOM      3  CG2 VAL A   1       9.203  -6.785  35.566  0.00  0.00    +0.002 C 
ATOM      4  CG1 VAL A   1      10.421  -7.772  33.606  0.00  0.00    +0.002 C 
ENDBRANCH   1   2
BRANCH   1   5
ATOM      5  N   VAL A   1       8.793  -9.705  35.318  0.00  0.00    -0.239 NA
ATOM      6  H   VAL A   1       7.930  -9.290  35.724  0.00  0.00    +0.142 HD
ENDBRANCH   1   5
BRANCH   1   7
ATOM      7  C   VAL A   1      10.412  -9.174  37.199  0.00  0.00    +0.224 C 
ATOM      8  O   VAL A   1       9.655  -8.641  37.995  0.00  0.00    -0.287 OA
ENDBRANCH   1   7
TORSDOF 3
REMARK  Name = ../refined-set-2016/2vvc/2vvc_pocket.pdb
REMARK  225 active torsions:
REMARK  status: ('A' for Active; 'I' for Inactive)
REMARK    1  A    between atoms: _1  and  _5
REMARK    2  A    between atoms: _5  and  _6
REMARK    3  A    between atoms: _5  and  _8
REMARK    4  A    between atoms: _8  and  _9
REMARK    5  A    between atoms: _12  and  _14
REMARK    6  A    between atoms: _14  and  _15
REMARK    7  A    between atoms: _14  and  _17
REMARK    8  A    between atoms: _20  and  _22
REMARK    9  A    between atoms: _22  and  _23
REMARK   10  A    between atoms: _22  and  _25
REMARK   11  A    between atoms: _25  and  _26
REMARK   12  A    between atoms: _31  and  _33
REMARK   13  A    between atoms: _33  and  _34
REMARK   14  A    between atoms: _33  and  _36
REMARK   15  A    between atoms: _36  and  _37
REMARK   16  A    between atoms: _37  and  _38
REMARK   17  A    between atoms: _43  and  _45
REMARK   18  A    between atoms: _45  and  _46
REMARK   19  A    between atoms: _45  and  _48
REMARK   20  A    between atoms: _48  and  _49
REMARK   21  A    between atoms: _55  and  _57
REMARK   22  A    between atoms: _57  and  _58
REMARK   23  A    between atoms: _57  and  _60
REMARK   24  A    between atoms: _60  and  _61
REMARK   25  A    between atoms: _64  and  _66
REMARK   26  A    between atoms: _66  and  _67
REMARK   27  A    between atoms: _66  and  _69
REMARK   28  A    between atoms: _69  and  _70
REMARK   29  A    between atoms: _70  and  _71
REMARK   30  A    between atoms: _71  and  _72
REMARK   31  A    between atoms: _72  and  _73
REMARK   32  A    between atoms: _77  and  _79
REMARK   33  A    between atoms: _79  and  _80
REMARK   34  A    between atoms: _79  and  _82
REMARK   35  A    between atoms: _82  and  _83
REMARK   36  A    between atoms: _83  and  _84
REMARK   37  A    between atoms: _87  and  _89
REMARK   38  A    between atoms: _89  and  _90
REMARK   39  A    between atoms: _89  and  _92
REMARK   40  A    between atoms: _92  and  _93
REMARK   41  A    between atoms: _96  and  _98
REMARK   42  A    between atoms: _98  and  _99
REMARK   43  A    between atoms: _98  and  _101
REMARK   44  A    between atoms: _101  and  _102
REMARK   45  A    between atoms: _107  and  _108
REMARK   46  A    between atoms: _110  and  _112
REMARK   47  A    between atoms: _112  and  _113
REMARK   48  A    between atoms: _112  and  _115
REMARK   49  A    between atoms: _115  and  _116
REMARK   50  A    between atoms: _119  and  _121
REMARK   51  A    between atoms: _121  and  _122
REMARK   52  A    between atoms: _121  and  _124
REMARK   53  A    between atoms: _124  and  _125
REMARK   54  A    between atoms: _128  and  _130
REMARK   55  A    between atoms: _130  and  _131
REMARK   56  A    between atoms: _130  and  _133
REMARK   57  A    between atoms: _136  and  _138
REMARK   58  A    between atoms: _138  and  _139
REMARK   59  A    between atoms: _138  and  _141
REMARK   60  A    between atoms: _141  and  _142
REMARK   61  A    between atoms: _142  and  _143
REMARK   62  A    between atoms: _143  and  _144
REMARK   63  A    between atoms: _153  and  _155
REMARK   64  A    between atoms: _155  and  _156
REMARK   65  A    between atoms: _155  and  _158
REMARK   66  A    between atoms: _158  and  _159
REMARK   67  A    between atoms: _164  and  _166
REMARK   68  A    between atoms: _166  and  _167
REMARK   69  A    between atoms: _166  and  _169
REMARK   70  A    between atoms: _169  and  _170
REMARK   71  A    between atoms: _170  and  _171
REMARK   72  A    between atoms: _174  and  _176
REMARK   73  A    between atoms: _176  and  _177
REMARK   74  A    between atoms: _176  and  _179
REMARK   75  A    between atoms: _179  and  _180
REMARK   76  A    between atoms: _180  and  _181
REMARK   77  A    between atoms: _181  and  _182
REMARK   78  A    between atoms: _182  and  _183
REMARK   79  A    between atoms: _187  and  _189
REMARK   80  A    between atoms: _189  and  _190
REMARK   81  A    between atoms: _192  and  _194
REMARK   82  A    between atoms: _194  and  _195
REMARK   83  A    between atoms: _194  and  _197
REMARK   84  A    between atoms: _200  and  _202
REMARK   85  A    between atoms: _202  and  _203
REMARK   86  A    between atoms: _202  and  _205
REMARK   87  A    between atoms: _205  and  _206
REMARK   88  A    between atoms: _208  and  _210
REMARK   89  A    between atoms: _210  and  _211
REMARK   90  A    between atoms: _210  and  _213
REMARK   91  A    between atoms: _213  and  _214
REMARK   92  A    between atoms: _216  and  _218
REMARK   93  A    between atoms: _218  and  _219
REMARK   94  A    between atoms: _218  and  _221
REMARK   95  A    between atoms: _221  and  _222
REMARK   96  A    between atoms: _228  and  _230
REMARK   97  A    between atoms: _230  and  _231
REMARK   98  A    between atoms: _230  and  _233
REMARK   99  A    between atoms: _233  and  _234
REMARK  100  A    between atoms: _237  and  _239
REMARK  101  A    between atoms: _239  and  _240
REMARK  102  A    between atoms: _239  and  _242
REMARK  103  A    between atoms: _242  and  _243
REMARK  104  A    between atoms: _246  and  _248
REMARK  105  A    between atoms: _248  and  _249
REMARK  106  A    between atoms: _248  and  _251
REMARK  107  A    between atoms: _251  and  _252
REMARK  108  A    between atoms: _255  and  _257
REMARK  109  A    between atoms: _257  and  _258
REMARK  110  A    between atoms: _257  and  _260
REMARK  111  A    between atoms: _260  and  _261
REMARK  112  A    between atoms: _261  and  _262
REMARK  113  A    between atoms: _264  and  _266
REMARK  114  A    between atoms: _266  and  _267
REMARK  115  A    between atoms: _266  and  _269
REMARK  116  A    between atoms: _269  and  _270
REMARK  117  A    between atoms: _276  and  _278
REMARK  118  A    between atoms: _278  and  _279
REMARK  119  A    between atoms: _278  and  _281
REMARK  120  A    between atoms: _283  and  _285
REMARK  121  A    between atoms: _285  and  _286
REMARK  122  A    between atoms: _289  and  _291
REMARK  123  A    between atoms: _291  and  _292
REMARK  124  A    between atoms: _294  and  _296
REMARK  125  A    between atoms: _296  and  _297
REMARK  126  A    between atoms: _296  and  _299
REMARK  127  A    between atoms: _299  and  _300
REMARK  128  A    between atoms: _300  and  _301
REMARK  129  A    between atoms: _304  and  _306
REMARK  130  A    between atoms: _306  and  _307
REMARK  131  A    between atoms: _306  and  _309
REMARK  132  A    between atoms: _309  and  _310
REMARK  133  A    between atoms: _313  and  _315
REMARK  134  A    between atoms: _315  and  _316
REMARK  135  A    between atoms: _319  and  _321
REMARK  136  A    between atoms: _321  and  _322
REMARK  137  A    between atoms: _321  and  _324
REMARK  138  A    between atoms: _324  and  _325
REMARK  139  A    between atoms: _325  and  _448
REMARK  140  A    between atoms: _326  and  _328
REMARK  141  A    between atoms: _328  and  _329
REMARK  142  A    between atoms: _328  and  _331
REMARK  143  A    between atoms: _331  and  _332
REMARK  144  A    between atoms: _332  and  _333
REMARK  145  A    between atoms: _338  and  _340
REMARK  146  A    between atoms: _340  and  _341
REMARK  147  A    between atoms: _343  and  _345
REMARK  148  A    between atoms: _345  and  _346
REMARK  149  A    between atoms: _345  and  _348
REMARK  150  A    between atoms: _348  and  _349
REMARK  151  A    between atoms: _352  and  _354
REMARK  152  A    between atoms: _354  and  _355
REMARK  153  A    between atoms: _354  and  _357
REMARK  154  A    between atoms: _357  and  _358
REMARK  155  A    between atoms: _360  and  _362
REMARK  156  A    between atoms: _362  and  _363
REMARK  157  A    between atoms: _365  and  _367
REMARK  158  A    between atoms: _367  and  _368
REMARK  159  A    between atoms: _370  and  _372
REMARK  160  A    between atoms: _372  and  _373
REMARK  161  A    between atoms: _372  and  _375
REMARK  162  A    between atoms: _375  and  _376
REMARK  163  A    between atoms: _381  and  _383
REMARK  164  A    between atoms: _383  and  _384
REMARK  165  A    between atoms: _383  and  _386
REMARK  166  A    between atoms: _386  and  _387
REMARK  167  A    between atoms: _390  and  _392
REMARK  168  A    between atoms: _392  and  _393
REMARK  169  A    between atoms: _392  and  _395
REMARK  170  A    between atoms: _398  and  _400
REMARK  171  A    between atoms: _400  and  _401
REMARK  172  A    between atoms: _400  and  _403
REMARK  173  A    between atoms: _403  and  _404
REMARK  174  A    between atoms: _406  and  _408
REMARK  175  A    between atoms: _408  and  _409
REMARK  176  A    between atoms: _408  and  _411
REMARK  177  A    between atoms: _411  and  _412
REMARK  178  A    between atoms: _422  and  _424
REMARK  179  A    between atoms: _424  and  _425
REMARK  180  A    between atoms: _427  and  _429
REMARK  181  A    between atoms: _429  and  _430
REMARK  182  A    between atoms: _429  and  _432
REMARK  183  A    between atoms: _432  and  _433
REMARK  184  A    between atoms: _433  and  _434
REMARK  185  A    between atoms: _437  and  _439
REMARK  186  A    between atoms: _439  and  _440
REMARK  187  A    between atoms: _442  and  _444
REMARK  188  A    between atoms: _444  and  _445
REMARK  189  A    between atoms: _444  and  _447
REMARK  190  A    between atoms: _447  and  _448
REMARK  191  A    between atoms: _449  and  _451
REMARK  192  A    between atoms: _451  and  _452
REMARK  193  A    between atoms: _455  and  _457
REMARK  194  A    between atoms: _457  and  _458
REMARK  195  A    between atoms: _457  and  _460
REMARK  196  A    between atoms: _460  and  _461
REMARK  197  A    between atoms: _461  and  _462
REMARK  198  A    between atoms: _462  and  _463
REMARK  199  A    between atoms: _472  and  _474
REMARK  200  A    between atoms: _474  and  _475
REMARK  201  A    between atoms: _474  and  _477
REMARK  202  A    between atoms: _477  and  _478
REMARK  203  A    between atoms: _478  and  _479
REMARK  204  A    between atoms: _479  and  _480
REMARK  205  A    between atoms: _480  and  _481
REMARK  206  A    between atoms: _485  and  _487
REMARK  207  A    between atoms: _487  and  _488
REMARK  208  A    between atoms: _487  and  _490
REMARK  209  A    between atoms: _490  and  _491
REMARK  210  A    between atoms: _496  and  _497
REMARK  211  A    between atoms: _499  and  _501
REMARK  212  A    between atoms: _501  and  _502
REMARK  213  A    between atoms: _504  and  _506
REMARK  214  A    between atoms: _506  and  _507
REMARK  215  A    between atoms: _506  and  _509
REMARK  216  A    between atoms: _509  and  _510
REMARK  217  A    between atoms: _513  and  _515
REMARK  218  A    between atoms: _515  and  _516
REMARK  219  A    between atoms: _515  and  _518
REMARK  220  A    between atoms: _518  and  _519
REMARK  221  A    between atoms: _524  and  _525
REMARK  222  A    between atoms: _527  and  _529
REMARK  223  A    between atoms: _529  and  _530
REMARK  224  A    between atoms: _529  and  _532
REMARK  225  A    between atoms: _532  and  _533
REMARK                            x       y       z     vdW  Elec       q    Type
REMARK                         _______ _______ _______ _____ _____    ______ ____
ROOT
ATOM      1  C   PHE A   3      21.104   7.873  36.763  0.00  0.00    +0.241 C 
ATOM      2  N   ILE A   4      20.751   8.971  37.410  0.00  0.00    -0.297 N 
ATOM      3  H   ILE A   4      20.790   9.888  36.921  0.00  0.00    +0.150 HD
ATOM      4  O   PHE A   3      20.978   6.744  37.249  0.00  0.00    -0.273 OA
ENDROOT
BRANCH   2   5
ATOM      5  CA  ILE A   4      20.310   8.916  38.790  0.00  0.00    +0.149 C 
BRANCH   5   6
ATOM      6  C   ILE A   4      18.958   8.261  38.918  0.00  0.00    +0.241 C 
ATOM      7  N   ILE A   5      18.890   7.255  39.788  0.00  0.00    -0.297 N 
ATOM      8  H   ILE A   5      19.772   6.924  40.230  0.00  0.00    +0.150 HD
ATOM      9  O   ILE A   4      17.999   8.654  38.247  0.00  0.00    -0.273 OA
BRANCH   7  10
ATOM     10  CA  ILE A   5      17.654   6.599  40.150  0.00  0.00    +0.149 C 
BRANCH  10  11
ATOM     11  C   ILE A   5      17.108   7.253  41.410  0.00  0.00    +0.241 C 
ATOM     12  O   ILE A   5      17.808   7.327  42.430  0.00  0.00    -0.273 OA
ATOM     13  N   THR A   6      15.874   7.733  41.348  0.00  0.00    -0.296 N 
ATOM     14  H   THR A   6      15.314   7.606  40.481  0.00  0.00    +0.150 HD
BRANCH  13  15
ATOM     15  CA  THR A   6      15.297   8.437  42.486  0.00  0.00    +0.164 C 
BRANCH  15  16
ATOM     16  CB  THR A   6      14.523   9.689  42.047  0.00  0.00    +0.136 C 
ATOM     17  CG2 THR A   6      15.367  10.485  41.065  0.00  0.00    +0.034 C 
BRANCH  16  18
ATOM     18  OG1 THR A   6      13.281   9.314  41.433  0.00  0.00    -0.382 OA
ATOM     19  HG1 THR A   6      12.792  10.129  41.155  0.00  0.00    +0.210 HD
ENDBRANCH  16  18
ENDBRANCH  15  16
BRANCH  15  20
ATOM     20  C   THR A   6      14.382   7.544  43.280  0.00  0.00    +0.229 C 
ATOM     21  O   THR A   6      14.101   6.434  42.875  0.00  0.00    -0.286 OA
ENDBRANCH  15  20
ENDBRANCH  13  15
ENDBRANCH  10  11
BRANCH  10  22
ATOM     22  CB  ILE A   5      17.890   5.124  40.488  0.00  0.00    +0.027 C 
ATOM     23  CG2 ILE A   5      16.573   4.450  40.747  0.00  0.00    +0.002 C 
BRANCH  22  24
ATOM     24  CG1 ILE A   5      18.665   4.420  39.364  0.00  0.00    +0.002 C 
ATOM     25  CD1 ILE A   5      18.070   4.606  37.975  0.00  0.00    +0.000 C 
ENDBRANCH  22  24
ENDBRANCH  10  22
ENDBRANCH   7  10
ENDBRANCH   5   6
BRANCH   5  26
ATOM     26  CB  ILE A   4      20.273  10.332  39.392  0.00  0.00    +0.027 C 
ATOM     27  CG2 ILE A   4      19.446  10.358  40.682  0.00  0.00    +0.002 C 
BRANCH  26  28
ATOM     28  CG1 ILE A   4      21.715  10.830  39.616  0.00  0.00    +0.002 C 
ATOM     29  CD1 ILE A   4      21.807  12.241  40.085  0.00  0.00    +0.000 C 
ENDBRANCH  26  28
ENDBRANCH   5  26
ENDBRANCH   2   5
BRANCH   1  30
ATOM     30  CA  PHE A   3      21.635   8.057  35.352  0.00  0.00    +0.153 C 
BRANCH  30  32
ATOM     31  C   SER A   2      23.653   7.070  34.505  0.00  0.00    +0.243 C 
ATOM     32  N   PHE A   3      22.515   6.952  35.154  0.00  0.00    -0.297 N 
ATOM     33  H   PHE A   3      22.248   6.022  35.535  0.00  0.00    +0.150 HD
ATOM     34  O   SER A   2      24.111   8.165  34.176  0.00  0.00    -0.273 OA
BRANCH  31  35
ATOM     35  CA  SER A   2      24.392   5.767  34.223  0.00  0.00    +0.178 C 
BRANCH  35  38
ATOM     36  C   SER A   1      23.766   3.988  35.768  0.00  0.00    +0.241 C 
ATOM     37  O   SER A   1      24.592   4.356  36.582  0.00  0.00    -0.274 OA
ATOM     38  N   SER A   2      23.594   4.603  34.602  0.00  0.00    -0.295 N 
ATOM     39  H   SER A   2      22.873   4.247  33.943  0.00  0.00    +0.150 HD
BRANCH  36  40
ATOM     40  CA  SER A   1      22.858   2.796  36.048  0.00  0.00    +0.174 C 
BRANCH  40  41
ATOM     41  N   SER A   1      23.472   1.715  36.810  0.00  0.00    -0.236 NA
ATOM     42  H   SER A   1      23.615   1.822  37.835  0.00  0.00    +0.142 HD
ENDBRANCH  40  41
BRANCH  40  43
ATOM     43  CB  SER A   1      21.582   3.251  36.739  0.00  0.00    +0.163 C 
BRANCH  43  44
ATOM     44  OG  SER A   1      21.004   4.320  36.015  0.00  0.00    -0.380 OA
ATOM     45  H   SER A   1      20.791   4.018  35.097  0.00  0.00    +0.211 HD
ENDBRANCH  43  44
ENDBRANCH  40  43
ENDBRANCH  36  40
ENDBRANCH  35  38
BRANCH  35  46
ATOM     46  CB  SER A   2      24.704   5.676  32.746  0.00  0.00    +0.166 C 
BRANCH  46  47
ATOM     47  OG  SER A   2      25.267   4.413  32.482  0.00  0.00    -0.380 OA
ATOM     48  H   SER A   2      24.622   3.706  32.735  0.00  0.00    +0.211 HD
ENDBRANCH  46  47
ENDBRANCH  35  46
ENDBRANCH  31  35
ENDBRANCH  30  32
BRANCH  30  49
ATOM     49  CB  PHE A   3      20.463   7.970  34.362  0.00  0.00    +0.055 C 
BRANCH  49  50
ATOM     50  CG  PHE A   3      20.859   8.127  32.905  0.00  0.00    -0.020 A 
ATOM     51  CD2 PHE A   3      20.907   9.389  32.313  0.00  0.00    -0.004 A 
ATOM     52  CE2 PHE A   3      21.260   9.539  30.964  0.00  0.00    -0.000 A 
ATOM     53  CZ  PHE A   3      21.559   8.415  30.213  0.00  0.00    -0.000 A 
ATOM     54  CE1 PHE A   3      21.496   7.154  30.798  0.00  0.00    -0.000 A 
ATOM     55  CD1 PHE A   3      21.146   7.019  32.127  0.00  0.00    -0.004 A 
ENDBRANCH  49  50
ENDBRANCH  30  49
ENDBRANCH   1  30
TORSDOF 24
REMARK  Name = ../refined-set-2016/2vvc/2vvc_pocket.pdb
REMARK  225 active torsions:
REMARK  status: ('A' for Active; 'I' for Inactive)
REMARK    1  A    between atoms: _1  and  _5
REMARK    2  A    between atoms: _5  and  _6
REMARK    3  A    between atoms: _5  and  _8
REMARK    4  A    between atoms: _8  and  _9
REMARK    5  A    between atoms: _12  and  _14
REMARK    6  A    between atoms: _14  and  _15
REMARK    7  A    between atoms: _14  and  _17
REMARK    8  A    between atoms: _20  and  _22
REMARK    9  A    between atoms: _22  and  _23
REMARK   10  A    between atoms: _22  and  _25
REMARK   11  A    between atoms: _25  and  _26
REMARK   12  A    between atoms: _31  and  _33
REMARK   13  A    between atoms: _33  and  _34
REMARK   14  A    between atoms: _33  and  _36
REMARK   15  A    between atoms: _36  and  _37
REMARK   16  A    between atoms: _37  and  _38
REMARK   17  A    between atoms: _43  and  _45
REMARK   18  A    between atoms: _45  and  _46
REMARK   19  A    between atoms: _45  and  _48
REMARK   20  A    between atoms: _48  and  _49
REMARK   21  A    between atoms: _55  and  _57
REMARK   22  A    between atoms: _57  and  _58
REMARK   23  A    between atoms: _57  and  _60
REMARK   24  A    between atoms: _60  and  _61
REMARK   25  A    between atoms: _64  and  _66
REMARK   26  A    between atoms: _66  and  _67
REMARK   27  A    between atoms: _66  and  _69
REMARK   28  A    between atoms: _69  and  _70
REMARK   29  A    between atoms: _70  and  _71
REMARK   30  A    between atoms: _71  and  _72
REMARK   31  A    between atoms: _72  and  _73
REMARK   32  A    between atoms: _77  and  _79
REMARK   33  A    between atoms: _79  and  _80
REMARK   34  A    between atoms: _79  and  _82
REMARK   35  A    between atoms: _82  and  _83
REMARK   36  A    between atoms: _83  and  _84
REMARK   37  A    between atoms: _87  and  _89
REMARK   38  A    between atoms: _89  and  _90
REMARK   39  A    between atoms: _89  and  _92
REMARK   40  A    between atoms: _92  and  _93
REMARK   41  A    between atoms: _96  and  _98
REMARK   42  A    between atoms: _98  and  _99
REMARK   43  A    between atoms: _98  and  _101
REMARK   44  A    between atoms: _101  and  _102
REMARK   45  A    between atoms: _107  and  _108
REMARK   46  A    between atoms: _110  and  _112
REMARK   47  A    between atoms: _112  and  _113
REMARK   48  A    between atoms: _112  and  _115
REMARK   49  A    between atoms: _115  and  _116
REMARK   50  A    between atoms: _119  and  _121
REMARK   51  A    between atoms: _121  and  _122
REMARK   52  A    between atoms: _121  and  _124
REMARK   53  A    between atoms: _124  and  _125
REMARK   54  A    between atoms: _128  and  _130
REMARK   55  A    between atoms: _130  and  _131
REMARK   56  A    between atoms: _130  and  _133
REMARK   57  A    between atoms: _136  and  _138
REMARK   58  A    between atoms: _138  and  _139
REMARK   59  A    between atoms: _138  and  _141
REMARK   60  A    between atoms: _141  and  _142
REMARK   61  A    between atoms: _142  and  _143
REMARK   62  A    between atoms: _143  and  _144
REMARK   63  A    between atoms: _153  and  _155
REMARK   64  A    between atoms: _155  and  _156
REMARK   65  A    between atoms: _155  and  _158
REMARK   66  A    between atoms: _158  and  _159
REMARK   67  A    between atoms: _164  and  _166
REMARK   68  A    between atoms: _166  and  _167
REMARK   69  A    between atoms: _166  and  _169
REMARK   70  A    between atoms: _169  and  _170
REMARK   71  A    between atoms: _170  and  _171
REMARK   72  A    between atoms: _174  and  _176
REMARK   73  A    between atoms: _176  and  _177
REMARK   74  A    between atoms: _176  and  _179
REMARK   75  A    between atoms: _179  and  _180
REMARK   76  A    between atoms: _180  and  _181
REMARK   77  A    between atoms: _181  and  _182
REMARK   78  A    between atoms: _182  and  _183
REMARK   79  A    between atoms: _187  and  _189
REMARK   80  A    between atoms: _189  and  _190
REMARK   81  A    between atoms: _192  and  _194
REMARK   82  A    between atoms: _194  and  _195
REMARK   83  A    between atoms: _194  and  _197
REMARK   84  A    between atoms: _200  and  _202
REMARK   85  A    between atoms: _202  and  _203
REMARK   86  A    between atoms: _202  and  _205
REMARK   87  A    between atoms: _205  and  _206
REMARK   88  A    between atoms: _208  and  _210
REMARK   89  A    between atoms: _210  and  _211
REMARK   90  A    between atoms: _210  and  _213
REMARK   91  A    between atoms: _213  and  _214
REMARK   92  A    between atoms: _216  and  _218
REMARK   93  A    between atoms: _218  and  _219
REMARK   94  A    between atoms: _218  and  _221
REMARK   95  A    between atoms: _221  and  _222
REMARK   96  A    between atoms: _228  and  _230
REMARK   97  A    between atoms: _230  and  _231
REMARK   98  A    between atoms: _230  and  _233
REMARK   99  A    between atoms: _233  and  _234
REMARK  100  A    between atoms: _237  and  _239
REMARK  101  A    between atoms: _239  and  _240
REMARK  102  A    between atoms: _239  and  _242
REMARK  103  A    between atoms: _242  and  _243
REMARK  104  A    between atoms: _246  and  _248
REMARK  105  A    between atoms: _248  and  _249
REMARK  106  A    between atoms: _248  and  _251
REMARK  107  A    between atoms: _251  and  _252
REMARK  108  A    between atoms: _255  and  _257
REMARK  109  A    between atoms: _257  and  _258
REMARK  110  A    between atoms: _257  and  _260
REMARK  111  A    between atoms: _260  and  _261
REMARK  112  A    between atoms: _261  and  _262
REMARK  113  A    between atoms: _264  and  _266
REMARK  114  A    between atoms: _266  and  _267
REMARK  115  A    between atoms: _266  and  _269
REMARK  116  A    between atoms: _269  and  _270
REMARK  117  A    between atoms: _276  and  _278
REMARK  118  A    between atoms: _278  and  _279
REMARK  119  A    between atoms: _278  and  _281
REMARK  120  A    between atoms: _283  and  _285
REMARK  121  A    between atoms: _285  and  _286
REMARK  122  A    between atoms: _289  and  _291
REMARK  123  A    between atoms: _291  and  _292
REMARK  124  A    between atoms: _294  and  _296
REMARK  125  A    between atoms: _296  and  _297
REMARK  126  A    between atoms: _296  and  _299
REMARK  127  A    between atoms: _299  and  _300
REMARK  128  A    between atoms: _300  and  _301
REMARK  129  A    between atoms: _304  and  _306
REMARK  130  A    between atoms: _306  and  _307
REMARK  131  A    between atoms: _306  and  _309
REMARK  132  A    between atoms: _309  and  _310
REMARK  133  A    between atoms: _313  and  _315
REMARK  134  A    between atoms: _315  and  _316
REMARK  135  A    between atoms: _319  and  _321
REMARK  136  A    between atoms: _321  and  _322
REMARK  137  A    between atoms: _321  and  _324
REMARK  138  A    between atoms: _324  and  _325
REMARK  139  A    between atoms: _325  and  _448
REMARK  140  A    between atoms: _326  and  _328
REMARK  141  A    between atoms: _328  and  _329
REMARK  142  A    between atoms: _328  and  _331
REMARK  143  A    between atoms: _331  and  _332
REMARK  144  A    between atoms: _332  and  _333
REMARK  145  A    between atoms: _338  and  _340
REMARK  146  A    between atoms: _340  and  _341
REMARK  147  A    between atoms: _343  and  _345
REMARK  148  A    between atoms: _345  and  _346
REMARK  149  A    between atoms: _345  and  _348
REMARK  150  A    between atoms: _348  and  _349
REMARK  151  A    between atoms: _352  and  _354
REMARK  152  A    between atoms: _354  and  _355
REMARK  153  A    between atoms: _354  and  _357
REMARK  154  A    between atoms: _357  and  _358
REMARK  155  A    between atoms: _360  and  _362
REMARK  156  A    between atoms: _362  and  _363
REMARK  157  A    between atoms: _365  and  _367
REMARK  158  A    between atoms: _367  and  _368
REMARK  159  A    between atoms: _370  and  _372
REMARK  160  A    between atoms: _372  and  _373
REMARK  161  A    between atoms: _372  and  _375
REMARK  162  A    between atoms: _375  and  _376
REMARK  163  A    between atoms: _381  and  _383
REMARK  164  A    between atoms: _383  and  _384
REMARK  165  A    between atoms: _383  and  _386
REMARK  166  A    between atoms: _386  and  _387
REMARK  167  A    between atoms: _390  and  _392
REMARK  168  A    between atoms: _392  and  _393
REMARK  169  A    between atoms: _392  and  _395
REMARK  170  A    between atoms: _398  and  _400
REMARK  171  A    between atoms: _400  and  _401
REMARK  172  A    between atoms: _400  and  _403
REMARK  173  A    between atoms: _403  and  _404
REMARK  174  A    between atoms: _406  and  _408
REMARK  175  A    between atoms: _408  and  _409
REMARK  176  A    between atoms: _408  and  _411
REMARK  177  A    between atoms: _411  and  _412
REMARK  178  A    between atoms: _422  and  _424
REMARK  179  A    between atoms: _424  and  _425
REMARK  180  A    between atoms: _427  and  _429
REMARK  181  A    between atoms: _429  and  _430
REMARK  182  A    between atoms: _429  and  _432
REMARK  183  A    between atoms: _432  and  _433
REMARK  184  A    between atoms: _433  and  _434
REMARK  185  A    between atoms: _437  and  _439
REMARK  186  A    between atoms: _439  and  _440
REMARK  187  A    between atoms: _442  and  _444
REMARK  188  A    between atoms: _444  and  _445
REMARK  189  A    between atoms: _444  and  _447
REMARK  190  A    between atoms: _447  and  _448
REMARK  191  A    between atoms: _449  and  _451
REMARK  192  A    between atoms: _451  and  _452
REMARK  193  A    between atoms: _455  and  _457
REMARK  194  A    between atoms: _457  and  _458
REMARK  195  A    between atoms: _457  and  _460
REMARK  196  A    between atoms: _460  and  _461
REMARK  197  A    between atoms: _461  and  _462
REMARK  198  A    between atoms: _462  and  _463
REMARK  199  A    between atoms: _472  and  _474
REMARK  200  A    between atoms: _474  and  _475
REMARK  201  A    between atoms: _474  and  _477
REMARK  202  A    between atoms: _477  and  _478
REMARK  203  A    between atoms: _478  and  _479
REMARK  204  A    between atoms: _479  and  _480
REMARK  205  A    between atoms: _480  and  _481
REMARK  206  A    between atoms: _485  and  _487
REMARK  207  A    between atoms: _487  and  _488
REMARK  208  A    between atoms: _487  and  _490
REMARK  209  A    between atoms: _490  and  _491
REMARK  210  A    between atoms: _496  and  _497
REMARK  211  A    between atoms: _499  and  _501
REMARK  212  A    between atoms: _501  and  _502
REMARK  213  A    between atoms: _504  and  _506
REMARK  214  A    between atoms: _506  and  _507
REMARK  215  A    between atoms: _506  and  _509
REMARK  216  A    between atoms: _509  and  _510
REMARK  217  A    between atoms: _513  and  _515
REMARK  218  A    between atoms: _515  and  _516
REMARK  219  A    between atoms: _515  and  _518
REMARK  220  A    between atoms: _518  and  _519
REMARK  221  A    between atoms: _524  and  _525
REMARK  222  A    between atoms: _527  and  _529
REMARK  223  A    between atoms: _529  and  _530
REMARK  224  A    between atoms: _529  and  _532
REMARK  225  A    between atoms: _532  and  _533
REMARK                            x       y       z     vdW  Elec       q    Type
REMARK                         _______ _______ _______ _____ _____    ______ ____
ROOT
ATOM      1  C   PHE A   2      12.814   0.572  39.765  0.00  0.00    +0.241 C 
ATOM      2  N   CYS A   3      13.640  -0.448  39.972  0.00  0.00    -0.296 N 
ATOM      3  H   CYS A   3      13.913  -0.700  40.943  0.00  0.00    +0.150 HD
ATOM      4  O   PHE A   2      12.444   0.920  38.640  0.00  0.00    -0.273 OA
ENDROOT
BRANCH   2   5
ATOM      5  CA  CYS A   3      14.163  -1.211  38.863  0.00  0.00    +0.160 C 
BRANCH   5   6
ATOM      6  C   CYS A   3      13.593  -2.622  38.885  0.00  0.00    +0.242 C 
ATOM      7  O   CYS A   3      13.307  -3.166  39.946  0.00  0.00    -0.273 OA
ATOM      8  N   ALA A   4      13.392  -3.183  37.710  0.00  0.00    -0.297 N 
ATOM      9  H   ALA A   4      13.613  -2.641  36.851  0.00  0.00    +0.150 HD
BRANCH   8  10
ATOM     10  CA  ALA A   4      12.874  -4.528  37.573  0.00  0.00    +0.149 C 
ATOM     11  CB  ALA A   4      11.414  -4.498  37.524  0.00  0.00    +0.031 C 
BRANCH  10  12
ATOM     12  C   ALA A   4      13.401  -5.090  36.255  0.00  0.00    +0.241 C 
ATOM     13  N   GLY A   5      13.510  -6.414  36.175  0.00  0.00    -0.296 N 
ATOM     14  H   GLY A   5      13.171  -7.006  36.960  0.00  0.00    +0.150 HD
ATOM     15  O   ALA A   4      13.683  -4.324  35.327  0.00  0.00    -0.273 OA
BRANCH  13  16
ATOM     16  CA  GLY A   5      14.103  -7.047  34.993  0.00  0.00    +0.163 C 
BRANCH  16  17
ATOM     17  C   GLY A   5      15.273  -7.952  35.337  0.00  0.00    +0.229 C 
ATOM     18  O   GLY A   5      15.353  -8.492  36.442  0.00  0.00    -0.286 OA
ENDBRANCH  16  17
ENDBRANCH  13  16
ENDBRANCH  10  12
ENDBRANCH   8  10
ENDBRANCH   5   6
BRANCH   5  19
ATOM     19  CB  CYS A   3      15.669  -1.189  38.973  0.00  0.00    +0.098 C 
ATOM     20  SG  CYS A   3      16.140   0.506  39.541  0.00  0.00    -0.080 S 
ENDBRANCH   5  19
ENDBRANCH   2   5
BRANCH   1  21
ATOM     21  CA  PHE A   2      12.352   1.316  41.010  0.00  0.00    +0.153 C 
BRANCH  21  24
ATOM     22  C   MET A   1      12.061   3.696  41.320  0.00  0.00    +0.238 C 
ATOM     23  O   MET A   1      12.554   3.696  42.451  0.00  0.00    -0.274 OA
ATOM     24  N   PHE A   2      11.788   2.587  40.624  0.00  0.00    -0.297 N 
ATOM     25  H   PHE A   2      11.162   2.641  39.795  0.00  0.00    +0.150 HD
BRANCH  22  26
ATOM     26  CA  MET A   1      11.759   4.994  40.635  0.00  0.00    +0.146 C 
BRANCH  26  27
ATOM     27  N   MET A   1      11.480   6.047  41.598  0.00  0.00    -0.238 NA
ATOM     28  H   MET A   1      12.197   6.249  42.324  0.00  0.00    +0.142 HD
ENDBRANCH  26  27
BRANCH  26  29
ATOM     29  CB  MET A   1      12.981   5.345  39.764  0.00  0.00    +0.038 C 
BRANCH  29  30
ATOM     30  CG  MET A   1      12.885   6.743  39.165  0.00  0.00    +0.060 C 
BRANCH  30  31
ATOM     31  SD  MET A   1      14.393   7.156  38.267  0.00  0.00    -0.139 S 
ATOM     32  CE  MET A   1      14.231   8.940  38.136  0.00  0.00    +0.069 C 
ENDBRANCH  30  31
ENDBRANCH  29  30
ENDBRANCH  26  29
ENDBRANCH  22  26
ENDBRANCH  21  24
BRANCH  21  33
ATOM     33  CB  PHE A   2      11.400   0.479  41.882  0.00  0.00    +0.055 C 
BRANCH  33  34
ATOM     34  CG  PHE A   2      10.203  -0.049  41.169  0.00  0.00    -0.020 A 
ATOM     35  CD2 PHE A   2       9.029   0.701  41.099  0.00  0.00    -0.004 A 
ATOM     36  CE2 PHE A   2       7.909   0.216  40.435  0.00  0.00    -0.000 A 
ATOM     37  CZ  PHE A   2       7.947  -1.041  39.824  0.00  0.00    -0.000 A 
ATOM     38  CE1 PHE A   2       9.113  -1.801  39.882  0.00  0.00    -0.000 A 
ATOM     39  CD1 PHE A   2      10.238  -1.302  40.558  0.00  0.00    -0.004 A 
ENDBRANCH  33  34
ENDBRANCH  21  33
ENDBRANCH   1  21
TORSDOF 16
REMARK  Name = ../refined-set-2016/2vvc/2vvc_pocket.pdb
REMARK  225 active torsions:
REMARK  status: ('A' for Active; 'I' for Inactive)
REMARK    1  A    between atoms: _1  and  _5
REMARK    2  A    between atoms: _5  and  _6
REMARK    3  A    between atoms: _5  and  _8
REMARK    4  A    between atoms: _8  and  _9
REMARK    5  A    between atoms: _12  and  _14
REMARK    6  A    between atoms: _14  and  _15
REMARK    7  A    between atoms: _14  and  _17
REMARK    8  A    between atoms: _20  and  _22
REMARK    9  A    between atoms: _22  and  _23
REMARK   10  A    between atoms: _22  and  _25
REMARK   11  A    between atoms: _25  and  _26
REMARK   12  A    between atoms: _31  and  _33
REMARK   13  A    between atoms: _33  and  _34
REMARK   14  A    between atoms: _33  and  _36
REMARK   15  A    between atoms: _36  and  _37
REMARK   16  A    between atoms: _37  and  _38
REMARK   17  A    between atoms: _43  and  _45
REMARK   18  A    between atoms: _45  and  _46
REMARK   19  A    between atoms: _45  and  _48
REMARK   20  A    between atoms: _48  and  _49
REMARK   21  A    between atoms: _55  and  _57
REMARK   22  A    between atoms: _57  and  _58
REMARK   23  A    between atoms: _57  and  _60
REMARK   24  A    between atoms: _60  and  _61
REMARK   25  A    between atoms: _64  and  _66
REMARK   26  A    between atoms: _66  and  _67
REMARK   27  A    between atoms: _66  and  _69
REMARK   28  A    between atoms: _69  and  _70
REMARK   29  A    between atoms: _70  and  _71
REMARK   30  A    between atoms: _71  and  _72
REMARK   31  A    between atoms: _72  and  _73
REMARK   32  A    between atoms: _77  and  _79
REMARK   33  A    between atoms: _79  and  _80
REMARK   34  A    between atoms: _79  and  _82
REMARK   35  A    between atoms: _82  and  _83
REMARK   36  A    between atoms: _83  and  _84
REMARK   37  A    between atoms: _87  and  _89
REMARK   38  A    between atoms: _89  and  _90
REMARK   39  A    between atoms: _89  and  _92
REMARK   40  A    between atoms: _92  and  _93
REMARK   41  A    between atoms: _96  and  _98
REMARK   42  A    between atoms: _98  and  _99
REMARK   43  A    between atoms: _98  and  _101
REMARK   44  A    between atoms: _101  and  _102
REMARK   45  A    between atoms: _107  and  _108
REMARK   46  A    between atoms: _110  and  _112
REMARK   47  A    between atoms: _112  and  _113
REMARK   48  A    between atoms: _112  and  _115
REMARK   49  A    between atoms: _115  and  _116
REMARK   50  A    between atoms: _119  and  _121
REMARK   51  A    between atoms: _121  and  _122
REMARK   52  A    between atoms: _121  and  _124
REMARK   53  A    between atoms: _124  and  _125
REMARK   54  A    between atoms: _128  and  _130
REMARK   55  A    between atoms: _130  and  _131
REMARK   56  A    between atoms: _130  and  _133
REMARK   57  A    between atoms: _136  and  _138
REMARK   58  A    between atoms: _138  and  _139
REMARK   59  A    between atoms: _138  and  _141
REMARK   60  A    between atoms: _141  and  _142
REMARK   61  A    between atoms: _142  and  _143
REMARK   62  A    between atoms: _143  and  _144
REMARK   63  A    between atoms: _153  and  _155
REMARK   64  A    between atoms: _155  and  _156
REMARK   65  A    between atoms: _155  and  _158
REMARK   66  A    between atoms: _158  and  _159
REMARK   67  A    between atoms: _164  and  _166
REMARK   68  A    between atoms: _166  and  _167
REMARK   69  A    between atoms: _166  and  _169
REMARK   70  A    between atoms: _169  and  _170
REMARK   71  A    between atoms: _170  and  _171
REMARK   72  A    between atoms: _174  and  _176
REMARK   73  A    between atoms: _176  and  _177
REMARK   74  A    between atoms: _176  and  _179
REMARK   75  A    between atoms: _179  and  _180
REMARK   76  A    between atoms: _180  and  _181
REMARK   77  A    between atoms: _181  and  _182
REMARK   78  A    between atoms: _182  and  _183
REMARK   79  A    between atoms: _187  and  _189
REMARK   80  A    between atoms: _189  and  _190
REMARK   81  A    between atoms: _192  and  _194
REMARK   82  A    between atoms: _194  and  _195
REMARK   83  A    between atoms: _194  and  _197
REMARK   84  A    between atoms: _200  and  _202
REMARK   85  A    between atoms: _202  and  _203
REMARK   86  A    between atoms: _202  and  _205
REMARK   87  A    between atoms: _205  and  _206
REMARK   88  A    between atoms: _208  and  _210
REMARK   89  A    between atoms: _210  and  _211
REMARK   90  A    between atoms: _210  and  _213
REMARK   91  A    between atoms: _213  and  _214
REMARK   92  A    between atoms: _216  and  _218
REMARK   93  A    between atoms: _218  and  _219
REMARK   94  A    between atoms: _218  and  _221
REMARK   95  A    between atoms: _221  and  _222
REMARK   96  A    between atoms: _228  and  _230
REMARK   97  A    between atoms: _230  and  _231
REMARK   98  A    between atoms: _230  and  _233
REMARK   99  A    between atoms: _233  and  _234
REMARK  100  A    between atoms: _237  and  _239
REMARK  101  A    between atoms: _239  and  _240
REMARK  102  A    between atoms: _239  and  _242
REMARK  103  A    between atoms: _242  and  _243
REMARK  104  A    between atoms: _246  and  _248
REMARK  105  A    between atoms: _248  and  _249
REMARK  106  A    between atoms: _248  and  _251
REMARK  107  A    between atoms: _251  and  _252
REMARK  108  A    between atoms: _255  and  _257
REMARK  109  A    between atoms: _257  and  _258
REMARK  110  A    between atoms: _257  and  _260
REMARK  111  A    between atoms: _260  and  _261
REMARK  112  A    between atoms: _261  and  _262
REMARK  113  A    between atoms: _264  and  _266
REMARK  114  A    between atoms: _266  and  _267
REMARK  115  A    between atoms: _266  and  _269
REMARK  116  A    between atoms: _269  and  _270
REMARK  117  A    between atoms: _276  and  _278
REMARK  118  A    between atoms: _278  and  _279
REMARK  119  A    between atoms: _278  and  _281
REMARK  120  A    between atoms: _283  and  _285
REMARK  121  A    between atoms: _285  and  _286
REMARK  122  A    between atoms: _289  and  _291
REMARK  123  A    between atoms: _291  and  _292
REMARK  124  A    between atoms: _294  and  _296
REMARK  125  A    between atoms: _296  and  _297
REMARK  126  A    between atoms: _296  and  _299
REMARK  127  A    between atoms: _299  and  _300
REMARK  128  A    between atoms: _300  and  _301
REMARK  129  A    between atoms: _304  and  _306
REMARK  130  A    between atoms: _306  and  _307
REMARK  131  A    between atoms: _306  and  _309
REMARK  132  A    between atoms: _309  and  _310
REMARK  133  A    between atoms: _313  and  _315
REMARK  134  A    between atoms: _315  and  _316
REMARK  135  A    between atoms: _319  and  _321
REMARK  136  A    between atoms: _321  and  _322
REMARK  137  A    between atoms: _321  and  _324
REMARK  138  A    between atoms: _324  and  _325
REMARK  139  A    between atoms: _325  and  _448
REMARK  140  A    between atoms: _326  and  _328
REMARK  141  A    between atoms: _328  and  _329
REMARK  142  A    between atoms: _328  and  _331
REMARK  143  A    between atoms: _331  and  _332
REMARK  144  A    between atoms: _332  and  _333
REMARK  145  A    between atoms: _338  and  _340
REMARK  146  A    between atoms: _340  and  _341
REMARK  147  A    between atoms: _343  and  _345
REMARK  148  A    between atoms: _345  and  _346
REMARK  149  A    between atoms: _345  and  _348
REMARK  150  A    between atoms: _348  and  _349
REMARK  151  A    between atoms: _352  and  _354
REMARK  152  A    between atoms: _354  and  _355
REMARK  153  A    between atoms: _354  and  _357
REMARK  154  A    between atoms: _357  and  _358
REMARK  155  A    between atoms: _360  and  _362
REMARK  156  A    between atoms: _362  and  _363
REMARK  157  A    between atoms: _365  and  _367
REMARK  158  A    between atoms: _367  and  _368
REMARK  159  A    between atoms: _370  and  _372
REMARK  160  A    between atoms: _372  and  _373
REMARK  161  A    between atoms: _372  and  _375
REMARK  162  A    between atoms: _375  and  _376
REMARK  163  A    between atoms: _381  and  _383
REMARK  164  A    between atoms: _383  and  _384
REMARK  165  A    between atoms: _383  and  _386
REMARK  166  A    between atoms: _386  and  _387
REMARK  167  A    between atoms: _390  and  _392
REMARK  168  A    between atoms: _392  and  _393
REMARK  169  A    between atoms: _392  and  _395
REMARK  170  A    between atoms: _398  and  _400
REMARK  171  A    between atoms: _400  and  _401
REMARK  172  A    between atoms: _400  and  _403
REMARK  173  A    between atoms: _403  and  _404
REMARK  174  A    between atoms: _406  and  _408
REMARK  175  A    between atoms: _408  and  _409
REMARK  176  A    between atoms: _408  and  _411
REMARK  177  A    between atoms: _411  and  _412
REMARK  178  A    between atoms: _422  and  _424
REMARK  179  A    between atoms: _424  and  _425
REMARK  180  A    between atoms: _427  and  _429
REMARK  181  A    between atoms: _429  and  _430
REMARK  182  A    between atoms: _429  and  _432
REMARK  183  A    between atoms: _432  and  _433
REMARK  184  A    between atoms: _433  and  _434
REMARK  185  A    between atoms: _437  and  _439
REMARK  186  A    between atoms: _439  and  _440
REMARK  187  A    between atoms: _442  and  _444
REMARK  188  A    between atoms: _444  and  _445
REMARK  189  A    between atoms: _444  and  _447
REMARK  190  A    between atoms: _447  and  _448
REMARK  191  A    between atoms: _449  and  _451
REMARK  192  A    between atoms: _451  and  _452
REMARK  193  A    between atoms: _455  and  _457
REMARK  194  A    between atoms: _457  and  _458
REMARK  195  A    between atoms: _457  and  _460
REMARK  196  A    between atoms: _460  and  _461
REMARK  197  A    between atoms: _461  and  _462
REMARK  198  A    between atoms: _462  and  _463
REMARK  199  A    between atoms: _472  and  _474
REMARK  200  A    between atoms: _474  and  _475
REMARK  201  A    between atoms: _474  and  _477
REMARK  202  A    between atoms: _477  and  _478
REMARK  203  A    between atoms: _478  and  _479
REMARK  204  A    between atoms: _479  and  _480
REMARK  205  A    between atoms: _480  and  _481
REMARK  206  A    between atoms: _485  and  _487
REMARK  207  A    between atoms: _487  and  _488
REMARK  208  A    between atoms: _487  and  _490
REMARK  209  A    between atoms: _490  and  _491
REMARK  210  A    between atoms: _496  and  _497
REMARK  211  A    between atoms: _499  and  _501
REMARK  212  A    between atoms: _501  and  _502
REMARK  213  A    between atoms: _504  and  _506
REMARK  214  A    between atoms: _506  and  _507
REMARK  215  A    between atoms: _506  and  _509
REMARK  216  A    between atoms: _509  and  _510
REMARK  217  A    between atoms: _513  and  _515
REMARK  218  A    between atoms: _515  and  _516
REMARK  219  A    between atoms: _515  and  _518
REMARK  220  A    between atoms: _518  and  _519
REMARK  221  A    between atoms: _524  and  _525
REMARK  222  A    between atoms: _527  and  _529
REMARK  223  A    between atoms: _529  and  _530
REMARK  224  A    between atoms: _529  and  _532
REMARK  225  A    between atoms: _532  and  _533
REMARK                            x       y       z     vdW  Elec       q    Type
REMARK                         _______ _______ _______ _____ _____    ______ ____
ROOT
ATOM      1  CA  CYS A   8      16.278  -2.416  25.986  0.00  0.00    +0.160 C 
ENDROOT
BRANCH   1   2
ATOM      2  C   CYS A   8      16.933  -3.744  26.219  0.00  0.00    +0.242 C 
ATOM      3  N   ALA A   9      16.785  -4.263  27.432  0.00  0.00    -0.297 N 
ATOM      4  H   ALA A   9      16.294  -3.719  28.170  0.00  0.00    +0.150 HD
ATOM      5  O   CYS A   8      17.576  -4.289  25.319  0.00  0.00    -0.273 OA
BRANCH   3   6
ATOM      6  CA  ALA A   9      17.304  -5.585  27.736  0.00  0.00    +0.149 C 
ATOM      7  CB  ALA A   9      16.632  -6.605  26.875  0.00  0.00    +0.031 C 
BRANCH   6   8
ATOM      8  C   ALA A   9      18.822  -5.687  27.559  0.00  0.00    +0.241 C 
ATOM      9  N   ARG A  10      19.515  -4.565  27.696  0.00  0.00    -0.298 N 
ATOM     10  H   ARG A  10      19.016  -3.672  27.884  0.00  0.00    +0.150 HD
ATOM     11  O   ALA A   9      19.347  -6.771  27.298  0.00  0.00    -0.273 OA
BRANCH   9  12
ATOM     12  CA  ARG A  10      20.964  -4.568  27.586  0.00  0.00    +0.137 C 
BRANCH  12  13
ATOM     13  C   ARG A  10      21.565  -5.384  28.708  0.00  0.00    +0.227 C 
ATOM     14  O   ARG A  10      20.954  -5.560  29.757  0.00  0.00    -0.286 OA
ENDBRANCH  12  13
BRANCH  12  15
ATOM     15  CB  ARG A  10      21.541  -3.147  27.606  0.00  0.00    +0.031 C 
BRANCH  15  16
ATOM     16  CG  ARG A  10      21.427  -2.430  26.268  0.00  0.00    +0.045 C 
BRANCH  16  17
ATOM     17  CD  ARG A  10      22.205  -1.118  26.246  0.00  0.00    +0.174 C 
BRANCH  17  18
ATOM     18  NE  ARG A  10      21.752  -0.247  25.165  0.00  0.00    -0.265 N 
ATOM     19  CZ  ARG A  10      22.025   1.055  25.091  0.00  0.00    +0.342 C 
ATOM     20  NH2 ARG A  10      22.758   1.654  26.027  0.00  0.00    -0.292 N 
ATOM     21 HH21 ARG A  10      23.126   1.105  26.830  0.00  0.00    +0.255 HD
ATOM     22 HH22 ARG A  10      22.963   2.671  25.955  0.00  0.00    +0.255 HD
ATOM     23  NH1 ARG A  10      21.558   1.760  24.078  0.00  0.00    -0.292 N 
ATOM     24 HH11 ARG A  10      21.766   2.777  24.012  0.00  0.00    +0.255 HD
ATOM     25 HH12 ARG A  10      20.982   1.299  23.345  0.00  0.00    +0.255 HD
ATOM     26  HE  ARG A  10      21.181  -0.669  24.406  0.00  0.00    +0.259 HD
ENDBRANCH  17  18
ENDBRANCH  16  17
ENDBRANCH  15  16
ENDBRANCH  12  15
ENDBRANCH   9  12
ENDBRANCH   6   8
ENDBRANCH   3   6
ENDBRANCH   1   2
BRANCH   1  27
ATOM     27  N   CYS A   8      17.282  -1.472  25.521  0.00  0.00    -0.296 N 
ATOM     28  C   GLY A   7      17.283  -0.221  25.950  0.00  0.00    +0.243 C 
ATOM     29  O   GLY A   7      16.461   0.184  26.734  0.00  0.00    -0.273 OA
ATOM     30  H   CYS A   8      18.007  -1.784  24.844  0.00  0.00    +0.150 HD
BRANCH  28  31
ATOM     31  CA  GLY A   7      18.395   0.695  25.445  0.00  0.00    +0.176 C 
BRANCH  31  32
ATOM     32  N   GLY A   7      18.641   1.752  26.408  0.00  0.00    -0.295 N 
ATOM     33  C   GLU A   6      19.179   1.480  27.593  0.00  0.00    +0.241 C 
ATOM     34  O   GLU A   6      19.645   0.378  27.872  0.00  0.00    -0.273 OA
ATOM     35  H   GLY A   7      18.394   2.733  26.169  0.00  0.00    +0.150 HD
BRANCH  33  36
ATOM     36  CA  GLU A   6      19.187   2.601  28.627  0.00  0.00    +0.149 C 
BRANCH  36  37
ATOM     37  N   GLU A   6      18.126   2.282  29.585  0.00  0.00    -0.297 N 
ATOM     38  H   GLU A   6      18.360   1.744  30.444  0.00  0.00    +0.150 HD
ATOM     39  C   GLY A   5      16.869   2.667  29.378  0.00  0.00    +0.243 C 
ATOM     40  O   GLY A   5      16.545   3.399  28.449  0.00  0.00    -0.273 OA
BRANCH  39  41
ATOM     41  CA  GLY A   5      15.826   2.190  30.360  0.00  0.00    +0.176 C 
BRANCH  41  42
ATOM     42  N   GLY A   5      14.738   3.155  30.341  0.00  0.00    -0.295 N 
ATOM     43  C   TRP A   4      13.760   3.162  31.237  0.00  0.00    +0.241 C 
ATOM     44  O   TRP A   4      13.681   2.358  32.174  0.00  0.00    -0.273 OA
ATOM     45  H   GLY A   5      14.726   3.874  29.589  0.00  0.00    +0.150 HD
BRANCH  43  46
ATOM     46  CA  TRP A   4      12.737   4.251  31.059  0.00  0.00    +0.153 C 
BRANCH  46  47
ATOM     47  N   TRP A   4      11.562   4.103  31.919  0.00  0.00    -0.297 N 
ATOM     48  H   TRP A   4      11.577   3.455  32.732  0.00  0.00    +0.150 HD
ATOM     49  C   SER A   3      10.480   4.813  31.639  0.00  0.00    +0.243 C 
ATOM     50  O   SER A   3      10.439   5.625  30.695  0.00  0.00    -0.273 OA
BRANCH  49  51
ATOM     51  CA  SER A   3       9.279   4.630  32.542  0.00  0.00    +0.178 C 
BRANCH  51  52
ATOM     52  N   SER A   3       8.775   3.274  32.574  0.00  0.00    -0.295 N 
ATOM     53  H   SER A   3       9.397   2.488  32.852  0.00  0.00    +0.150 HD
ATOM     54  C   VAL A   2       7.514   3.045  32.246  0.00  0.00    +0.241 C 
ATOM     55  O   VAL A   2       6.733   3.934  31.809  0.00  0.00    -0.273 OA
BRANCH  54  56
ATOM     56  CA  VAL A   2       7.042   1.641  32.502  0.00  0.00    +0.148 C 
BRANCH  56  57
ATOM     57  N   VAL A   2       5.868   1.723  33.358  0.00  0.00    -0.297 N 
ATOM     58  C   ILE A   1       5.900   2.465  34.450  0.00  0.00    +0.238 C 
ATOM     59  O   ILE A   1       6.900   3.016  34.837  0.00  0.00    -0.274 OA
ATOM     60  H   VAL A   2       5.005   1.198  33.110  0.00  0.00    +0.150 HD
BRANCH  58  61
ATOM     61  CA  ILE A   1       4.627   2.599  35.249  0.00  0.00    +0.145 C 
BRANCH  61  62
ATOM     62  CB  ILE A   1       4.297   4.075  35.261  0.00  0.00    +0.025 C 
ATOM     63  CG2 ILE A   1       4.189   4.546  33.846  0.00  0.00    +0.002 C 
BRANCH  62  64
ATOM     64  CG1 ILE A   1       2.974   4.333  35.982  0.00  0.00    +0.002 C 
ATOM     65  CD1 ILE A   1       2.825   5.762  36.439  0.00  0.00    +0.000 C 
ENDBRANCH  62  64
ENDBRANCH  61  62
BRANCH  61  66
ATOM     66  N   ILE A   1       4.993   2.106  36.544  0.00  0.00    -0.238 NA
ATOM     67  H   ILE A   1       5.842   2.475  37.018  0.00  0.00    +0.142 HD
ENDBRANCH  61  66
ENDBRANCH  58  61
ENDBRANCH  56  57
BRANCH  56  68
ATOM     68  CB  VAL A   2       6.745   0.967  31.174  0.00  0.00    +0.027 C 
ATOM     69  CG2 VAL A   2       6.121  -0.383  31.422  0.00  0.00    +0.002 C 
ATOM     70  CG1 VAL A   2       8.022   0.836  30.350  0.00  0.00    +0.002 C 
ENDBRANCH  56  68
ENDBRANCH  54  56
ENDBRANCH  51  52
BRANCH  51  71
ATOM     71  CB  SER A   3       9.578   5.125  33.962  0.00  0.00    +0.166 C 
BRANCH  71  72
ATOM     72  OG  SER A   3      10.152   6.417  33.903  0.00  0.00    -0.380 OA
ATOM     73  H   SER A   3       9.519   7.038  33.464  0.00  0.00    +0.211 HD
ENDBRANCH  71  72
ENDBRANCH  51  71
ENDBRANCH  49  51
ENDBRANCH  46  47
BRANCH  46  74
ATOM     74  CB  TRP A   4      13.401   5.613  31.251  0.00  0.00    +0.057 C 
BRANCH  74  75
ATOM     75  CG  TRP A   4      13.936   5.871  32.645  0.00  0.00    -0.002 A 
ATOM     76  CD1 TRP A   4      13.217   6.273  33.712  0.00  0.00    +0.068 A 
ATOM     77  NE1 TRP A   4      14.040   6.436  34.817  0.00  0.00    -0.352 N 
ATOM     78  HE1 TRP A   4      13.730   6.746  35.760  0.00  0.00    +0.166 HD
ATOM     79  CE2 TRP A   4      15.332   6.122  34.465  0.00  0.00    +0.056 A 
ATOM     80  CZ2 TRP A   4      16.505   6.113  35.242  0.00  0.00    +0.017 A 
ATOM     81  CH2 TRP A   4      17.680   5.760  34.621  0.00  0.00    +0.001 A 
ATOM     82  CZ3 TRP A   4      17.704   5.398  33.243  0.00  0.00    +0.000 A 
ATOM     83  CE3 TRP A   4      16.520   5.389  32.477  0.00  0.00    +0.001 A 
ATOM     84  CD2 TRP A   4      15.315   5.763  33.096  0.00  0.00    +0.013 A 
ENDBRANCH  74  75
ENDBRANCH  46  74
ENDBRANCH  43  46
ENDBRANCH  41  42
ENDBRANCH  39  41
ENDBRANCH  36  37
BRANCH  36  85
ATOM     85  CB  GLU A   6      20.555   2.637  29.330  0.00  0.00    +0.041 C 
BRANCH  85  86
ATOM     86  CG  GLU A   6      20.688   3.727  30.404  0.00  0.00    +0.116 C 
BRANCH  86  87
ATOM     87  CD  GLU A   6      21.860   3.489  31.360  0.00  0.00    +0.365 C 
ATOM     88  OE2 GLU A   6      21.647   3.487  32.604  0.00  0.00    -0.246 OA
ATOM     89  OE1 GLU A   6      22.989   3.332  30.863  0.00  0.00    -0.246 OA
ENDBRANCH  86  87
ENDBRANCH  85  86
ENDBRANCH  36  85
ENDBRANCH  33  36
ENDBRANCH  31  32
ENDBRANCH  28  31
ENDBRANCH   1  27
BRANCH   1  90
ATOM     90  CB  CYS A   8      15.218  -2.614  24.919  0.00  0.00    +0.098 C 
BRANCH  90  91
ATOM     91  SG  CYS A   8      14.347  -1.115  24.534  0.00  0.00    -0.080 S 
BRANCH  91  92
ATOM     92  SG  TRP A   4      13.022  -1.777  23.153  0.00  0.00    -0.080 S 
BRANCH  92  93
ATOM     93  CB  TRP A   4      11.528  -2.165  24.140  0.00  0.00    +0.098 C 
BRANCH  93  94
ATOM     94  CA  TRP A   4      11.211  -1.216  25.302  0.00  0.00    +0.160 C 
BRANCH  94  97
ATOM     95  C   SER A   3      11.081  -2.721  27.247  0.00  0.00    +0.241 C 
ATOM     96  O   SER A   3      12.291  -2.885  27.274  0.00  0.00    -0.273 OA
ATOM     97  N   TRP A   4      10.475  -1.926  26.362  0.00  0.00    -0.296 N 
ATOM     98  H   TRP A   4       9.444  -1.803  26.423  0.00  0.00    +0.150 HD
BRANCH  95  99
ATOM     99  CA  SER A   3      10.216  -3.467  28.255  0.00  0.00    +0.149 C 
ATOM    100  CB  SER A   3       9.560  -2.494  29.224  0.00  0.00    +0.031 C 
BRANCH  99 102
ATOM    101  C   VAL A   2      11.380  -5.585  28.556  0.00  0.00    +0.241 C 
ATOM    102  N   SER A   3      11.127  -4.343  28.960  0.00  0.00    -0.297 N 
ATOM    103  H   SER A   3      11.602  -3.988  29.815  0.00  0.00    +0.150 HD
ATOM    104  O   VAL A   2      10.689  -6.172  27.721  0.00  0.00    -0.273 OA
BRANCH 101 105
ATOM    105  CA  VAL A   2      12.568  -6.299  29.230  0.00  0.00    +0.160 C 
BRANCH 105 108
ATOM    106  C   ILE A   1      13.580  -8.477  29.161  0.00  0.00    +0.238 C 
ATOM    107  O   ILE A   1      14.278  -8.223  30.130  0.00  0.00    -0.274 OA
ATOM    108  N   VAL A   2      12.674  -7.636  28.680  0.00  0.00    -0.297 N 
ATOM    109  H   VAL A   2      12.042  -7.935  27.910  0.00  0.00    +0.150 HD
BRANCH 106 110
ATOM    110  CA  ILE A   1      13.714  -9.801  28.467  0.00  0.00    +0.145 C 
BRANCH 110 111
ATOM    111  N   ILE A   1      15.147 -10.084  28.329  0.00  0.00    -0.238 NA
ATOM    112  H   ILE A   1      15.780  -9.934  29.140  0.00  0.00    +0.142 HD
ENDBRANCH 110 111
BRANCH 110 113
ATOM    113  CB  ILE A   1      12.982 -10.878  29.304  0.00  0.00    +0.038 C 
BRANCH 113 114
ATOM    114  CG  ILE A   1      12.942 -12.262  28.660  0.00  0.00    +0.116 C 
BRANCH 114 115
ATOM    115  CD  ILE A   1      12.025 -13.196  29.412  0.00  0.00    +0.365 C 
ATOM    116  OE2 ILE A   1      12.104 -13.245  30.657  0.00  0.00    -0.246 OA
ATOM    117  OE1 ILE A   1      11.216 -13.875  28.753  0.00  0.00    -0.246 OA
ENDBRANCH 114 115
ENDBRANCH 113 114
ENDBRANCH 110 113
ENDBRANCH 106 110
ENDBRANCH 105 108
BRANCH 105 118
ATOM    118  CB  VAL A   2      13.900  -5.591  28.969  0.00  0.00    +0.143 C 
BRANCH 118 119
ATOM    119  CG  VAL A   2      14.055  -4.276  29.725  0.00  0.00    +0.367 C 
ATOM    120  OD2 VAL A   2      13.211  -3.921  30.595  0.00  0.00    -0.246 OA
ATOM    121  OD1 VAL A   2      15.063  -3.590  29.422  0.00  0.00    -0.246 OA
ENDBRANCH 118 119
ENDBRANCH 105 118
ENDBRANCH 101 105
ENDBRANCH  99 102
ENDBRANCH  95  99
ENDBRANCH  94  97
BRANCH  94 122
ATOM    122  C   TRP A   4      10.384  -0.033  24.773  0.00  0.00    +0.242 C 
ATOM    123  O   TRP A   4       9.241   0.179  25.171  0.00  0.00    -0.273 OA
ATOM    124  N   GLY A   5      10.966   0.705  23.847  0.00  0.00    -0.297 N 
ATOM    125  H   GLY A   5      11.930   0.462  23.543  0.00  0.00    +0.150 HD
BRANCH 124 126
ATOM    126  CA  GLY A   5      10.302   1.850  23.236  0.00  0.00    +0.149 C 
BRANCH 126 127
ATOM    127  C   GLY A   5       8.901   1.424  22.835  0.00  0.00    +0.241 C 
ATOM    128  N   GLU A   6       7.897   2.196  23.236  0.00  0.00    -0.295 N 
ATOM    129  H   GLU A   6       8.100   3.065  23.769  0.00  0.00    +0.150 HD
ATOM    130  O   GLY A   5       8.727   0.382  22.219  0.00  0.00    -0.273 OA
BRANCH 128 131
ATOM    131  CA  GLU A   6       6.516   1.842  22.939  0.00  0.00    +0.176 C 
BRANCH 131 132
ATOM    132  C   GLU A   6       5.742   1.266  24.136  0.00  0.00    +0.243 C 
ATOM    133  N   GLY A   7       6.460   0.800  25.158  0.00  0.00    -0.296 N 
ATOM    134  H   GLY A   7       7.498   0.834  25.102  0.00  0.00    +0.150 HD
ATOM    135  O   GLU A   6       4.509   1.235  24.122  0.00  0.00    -0.273 OA
BRANCH 133 136
ATOM    136  CA  GLY A   7       5.831   0.241  26.357  0.00  0.00    +0.160 C 
BRANCH 136 137
ATOM    137  C   GLY A   7       5.703   1.324  27.428  0.00  0.00    +0.241 C 
ATOM    138  O   GLY A   7       4.881   1.225  28.346  0.00  0.00    -0.273 OA
ATOM    139  N   CYS A   8       6.526   2.353  27.299  0.00  0.00    -0.295 N 
ATOM    140  H   CYS A   8       7.216   2.342  26.521  0.00  0.00    +0.150 HD
BRANCH 139 141
ATOM    141  CA  CYS A   8       6.509   3.507  28.202  0.00  0.00    +0.178 C 
BRANCH 141 142
ATOM    142  C   CYS A   8       5.078   3.923  28.508  0.00  0.00    +0.243 C 
ATOM    143  N   ALA A   9       4.801   4.256  29.766  0.00  0.00    -0.295 N 
ATOM    144  H   ALA A   9       5.559   4.263  30.478  0.00  0.00    +0.150 HD
ATOM    145  O   CYS A   8       4.226   3.930  27.606  0.00  0.00    -0.273 OA
BRANCH 143 146
ATOM    146  CA  ALA A   9       3.443   4.611  30.150  0.00  0.00    +0.176 C 
BRANCH 146 147
ATOM    147  C   ALA A   9       2.620   3.411  30.564  0.00  0.00    +0.243 C 
ATOM    148  O   ALA A   9       1.672   3.550  31.336  0.00  0.00    -0.273 OA
ATOM    149  N   ARG A  10       2.988   2.235  30.062  0.00  0.00    -0.296 N 
ATOM    150  H   ARG A  10       3.853   2.174  29.488  0.00  0.00    +0.150 HD
BRANCH 149 151
ATOM    151  CA  ARG A  10       2.198   1.025  30.303  0.00  0.00    +0.163 C 
BRANCH 151 152
ATOM    152  C   ARG A  10       2.178   0.519  31.738  0.00  0.00    +0.229 C 
ATOM    153  O   ARG A  10       2.808   1.119  32.647  0.00  0.00    -0.286 OA
ENDBRANCH 151 152
ENDBRANCH 149 151
ENDBRANCH 146 147
ENDBRANCH 143 146
ENDBRANCH 141 142
BRANCH 141 154
ATOM    154  CB  CYS A   8       7.248   4.681  27.549  0.00  0.00    +0.166 C 
BRANCH 154 155
ATOM    155  O   CYS A   8       8.623   4.595  27.834  0.00  0.00    -0.380 OA
ATOM    156  H   CYS A   8       9.095   5.355  27.410  0.00  0.00    +0.211 HD
ENDBRANCH 154 155
ENDBRANCH 141 154
ENDBRANCH 139 141
ENDBRANCH 136 137
BRANCH 136 157
ATOM    157  CB  GLY A   7       6.647  -0.932  26.896  0.00  0.00    +0.143 C 
BRANCH 157 158
ATOM    158  CG  GLY A   7       6.701  -2.100  25.918  0.00  0.00    +0.367 C 
ATOM    159  OD2 GLY A   7       7.772  -2.746  25.741  0.00  0.00    -0.246 OA
ATOM    160  OD1 GLY A   7       5.645  -2.369  25.331  0.00  0.00    -0.246 OA
ENDBRANCH 157 158
ENDBRANCH 136 157
ENDBRANCH 133 136
ENDBRANCH 131 132
ENDBRANCH 128 131
ENDBRANCH 126 127
BRANCH 126 161
ATOM    161  CB  GLY A   5      11.100   2.346  22.024  0.00  0.00    +0.039 C 
BRANCH 161 162
ATOM    162  CG  GLY A   5      10.770   3.766  21.632  0.00  0.00    +0.087 C 
BRANCH 162 163
ATOM    163  CD  GLY A   5      11.895   4.414  20.865  0.00  0.00    +0.219 C 
ATOM    164  NE2 GLY A   5      12.665   5.255  21.553  0.00  0.00    -0.329 N 
ATOM    165 HE21 GLY A   5      12.469   5.435  22.558  0.00  0.00    +0.145 HD
ATOM    166 HE22 GLY A   5      13.462   5.732  21.085  0.00  0.00    +0.145 HD
ATOM    167  OE1 GLY A   5      12.080   4.161  19.667  0.00  0.00    -0.275 OA
ENDBRANCH 162 163
ENDBRANCH 161 162
ENDBRANCH 126 161
ENDBRANCH 124 126
ENDBRANCH  94 122
ENDBRANCH  93  94
ENDBRANCH  92  93
ENDBRANCH  91  92
ENDBRANCH  90  91
ENDBRANCH   1  90
TORSDOF 71
REMARK  Name = ../refined-set-2016/2vvc/2vvc_pocket.pdb
REMARK  225 active torsions:
REMARK  status: ('A' for Active; 'I' for Inactive)
REMARK    1  A    between atoms: _1  and  _5
REMARK    2  A    between atoms: _5  and  _6
REMARK    3  A    between atoms: _5  and  _8
REMARK    4  A    between atoms: _8  and  _9
REMARK    5  A    between atoms: _12  and  _14
REMARK    6  A    between atoms: _14  and  _15
REMARK    7  A    between atoms: _14  and  _17
REMARK    8  A    between atoms: _20  and  _22
REMARK    9  A    between atoms: _22  and  _23
REMARK   10  A    between atoms: _22  and  _25
REMARK   11  A    between atoms: _25  and  _26
REMARK   12  A    between atoms: _31  and  _33
REMARK   13  A    between atoms: _33  and  _34
REMARK   14  A    between atoms: _33  and  _36
REMARK   15  A    between atoms: _36  and  _37
REMARK   16  A    between atoms: _37  and  _38
REMARK   17  A    between atoms: _43  and  _45
REMARK   18  A    between atoms: _45  and  _46
REMARK   19  A    between atoms: _45  and  _48
REMARK   20  A    between atoms: _48  and  _49
REMARK   21  A    between atoms: _55  and  _57
REMARK   22  A    between atoms: _57  and  _58
REMARK   23  A    between atoms: _57  and  _60
REMARK   24  A    between atoms: _60  and  _61
REMARK   25  A    between atoms: _64  and  _66
REMARK   26  A    between atoms: _66  and  _67
REMARK   27  A    between atoms: _66  and  _69
REMARK   28  A    between atoms: _69  and  _70
REMARK   29  A    between atoms: _70  and  _71
REMARK   30  A    between atoms: _71  and  _72
REMARK   31  A    between atoms: _72  and  _73
REMARK   32  A    between atoms: _77  and  _79
REMARK   33  A    between atoms: _79  and  _80
REMARK   34  A    between atoms: _79  and  _82
REMARK   35  A    between atoms: _82  and  _83
REMARK   36  A    between atoms: _83  and  _84
REMARK   37  A    between atoms: _87  and  _89
REMARK   38  A    between atoms: _89  and  _90
REMARK   39  A    between atoms: _89  and  _92
REMARK   40  A    between atoms: _92  and  _93
REMARK   41  A    between atoms: _96  and  _98
REMARK   42  A    between atoms: _98  and  _99
REMARK   43  A    between atoms: _98  and  _101
REMARK   44  A    between atoms: _101  and  _102
REMARK   45  A    between atoms: _107  and  _108
REMARK   46  A    between atoms: _110  and  _112
REMARK   47  A    between atoms: _112  and  _113
REMARK   48  A    between atoms: _112  and  _115
REMARK   49  A    between atoms: _115  and  _116
REMARK   50  A    between atoms: _119  and  _121
REMARK   51  A    between atoms: _121  and  _122
REMARK   52  A    between atoms: _121  and  _124
REMARK   53  A    between atoms: _124  and  _125
REMARK   54  A    between atoms: _128  and  _130
REMARK   55  A    between atoms: _130  and  _131
REMARK   56  A    between atoms: _130  and  _133
REMARK   57  A    between atoms: _136  and  _138
REMARK   58  A    between atoms: _138  and  _139
REMARK   59  A    between atoms: _138  and  _141
REMARK   60  A    between atoms: _141  and  _142
REMARK   61  A    between atoms: _142  and  _143
REMARK   62  A    between atoms: _143  and  _144
REMARK   63  A    between atoms: _153  and  _155
REMARK   64  A    between atoms: _155  and  _156
REMARK   65  A    between atoms: _155  and  _158
REMARK   66  A    between atoms: _158  and  _159
REMARK   67  A    between atoms: _164  and  _166
REMARK   68  A    between atoms: _166  and  _167
REMARK   69  A    between atoms: _166  and  _169
REMARK   70  A    between atoms: _169  and  _170
REMARK   71  A    between atoms: _170  and  _171
REMARK   72  A    between atoms: _174  and  _176
REMARK   73  A    between atoms: _176  and  _177
REMARK   74  A    between atoms: _176  and  _179
REMARK   75  A    between atoms: _179  and  _180
REMARK   76  A    between atoms: _180  and  _181
REMARK   77  A    between atoms: _181  and  _182
REMARK   78  A    between atoms: _182  and  _183
REMARK   79  A    between atoms: _187  and  _189
REMARK   80  A    between atoms: _189  and  _190
REMARK   81  A    between atoms: _192  and  _194
REMARK   82  A    between atoms: _194  and  _195
REMARK   83  A    between atoms: _194  and  _197
REMARK   84  A    between atoms: _200  and  _202
REMARK   85  A    between atoms: _202  and  _203
REMARK   86  A    between atoms: _202  and  _205
REMARK   87  A    between atoms: _205  and  _206
REMARK   88  A    between atoms: _208  and  _210
REMARK   89  A    between atoms: _210  and  _211
REMARK   90  A    between atoms: _210  and  _213
REMARK   91  A    between atoms: _213  and  _214
REMARK   92  A    between atoms: _216  and  _218
REMARK   93  A    between atoms: _218  and  _219
REMARK   94  A    between atoms: _218  and  _221
REMARK   95  A    between atoms: _221  and  _222
REMARK   96  A    between atoms: _228  and  _230
REMARK   97  A    between atoms: _230  and  _231
REMARK   98  A    between atoms: _230  and  _233
REMARK   99  A    between atoms: _233  and  _234
REMARK  100  A    between atoms: _237  and  _239
REMARK  101  A    between atoms: _239  and  _240
REMARK  102  A    between atoms: _239  and  _242
REMARK  103  A    between atoms: _242  and  _243
REMARK  104  A    between atoms: _246  and  _248
REMARK  105  A    between atoms: _248  and  _249
REMARK  106  A    between atoms: _248  and  _251
REMARK  107  A    between atoms: _251  and  _252
REMARK  108  A    between atoms: _255  and  _257
REMARK  109  A    between atoms: _257  and  _258
REMARK  110  A    between atoms: _257  and  _260
REMARK  111  A    between atoms: _260  and  _261
REMARK  112  A    between atoms: _261  and  _262
REMARK  113  A    between atoms: _264  and  _266
REMARK  114  A    between atoms: _266  and  _267
REMARK  115  A    between atoms: _266  and  _269
REMARK  116  A    between atoms: _269  and  _270
REMARK  117  A    between atoms: _276  and  _278
REMARK  118  A    between atoms: _278  and  _279
REMARK  119  A    between atoms: _278  and  _281
REMARK  120  A    between atoms: _283  and  _285
REMARK  121  A    between atoms: _285  and  _286
REMARK  122  A    between atoms: _289  and  _291
REMARK  123  A    between atoms: _291  and  _292
REMARK  124  A    between atoms: _294  and  _296
REMARK  125  A    between atoms: _296  and  _297
REMARK  126  A    between atoms: _296  and  _299
REMARK  127  A    between atoms: _299  and  _300
REMARK  128  A    between atoms: _300  and  _301
REMARK  129  A    between atoms: _304  and  _306
REMARK  130  A    between atoms: _306  and  _307
REMARK  131  A    between atoms: _306  and  _309
REMARK  132  A    between atoms: _309  and  _310
REMARK  133  A    between atoms: _313  and  _315
REMARK  134  A    between atoms: _315  and  _316
REMARK  135  A    between atoms: _319  and  _321
REMARK  136  A    between atoms: _321  and  _322
REMARK  137  A    between atoms: _321  and  _324
REMARK  138  A    between atoms: _324  and  _325
REMARK  139  A    between atoms: _325  and  _448
REMARK  140  A    between atoms: _326  and  _328
REMARK  141  A    between atoms: _328  and  _329
REMARK  142  A    between atoms: _328  and  _331
REMARK  143  A    between atoms: _331  and  _332
REMARK  144  A    between atoms: _332  and  _333
REMARK  145  A    between atoms: _338  and  _340
REMARK  146  A    between atoms: _340  and  _341
REMARK  147  A    between atoms: _343  and  _345
REMARK  148  A    between atoms: _345  and  _346
REMARK  149  A    between atoms: _345  and  _348
REMARK  150  A    between atoms: _348  and  _349
REMARK  151  A    between atoms: _352  and  _354
REMARK  152  A    between atoms: _354  and  _355
REMARK  153  A    between atoms: _354  and  _357
REMARK  154  A    between atoms: _357  and  _358
REMARK  155  A    between atoms: _360  and  _362
REMARK  156  A    between atoms: _362  and  _363
REMARK  157  A    between atoms: _365  and  _367
REMARK  158  A    between atoms: _367  and  _368
REMARK  159  A    between atoms: _370  and  _372
REMARK  160  A    between atoms: _372  and  _373
REMARK  161  A    between atoms: _372  and  _375
REMARK  162  A    between atoms: _375  and  _376
REMARK  163  A    between atoms: _381  and  _383
REMARK  164  A    between atoms: _383  and  _384
REMARK  165  A    between atoms: _383  and  _386
REMARK  166  A    between atoms: _386  and  _387
REMARK  167  A    between atoms: _390  and  _392
REMARK  168  A    between atoms: _392  and  _393
REMARK  169  A    between atoms: _392  and  _395
REMARK  170  A    between atoms: _398  and  _400
REMARK  171  A    between atoms: _400  and  _401
REMARK  172  A    between atoms: _400  and  _403
REMARK  173  A    between atoms: _403  and  _404
REMARK  174  A    between atoms: _406  and  _408
REMARK  175  A    between atoms: _408  and  _409
REMARK  176  A    between atoms: _408  and  _411
REMARK  177  A    between atoms: _411  and  _412
REMARK  178  A    between atoms: _422  and  _424
REMARK  179  A    between atoms: _424  and  _425
REMARK  180  A    between atoms: _427  and  _429
REMARK  181  A    between atoms: _429  and  _430
REMARK  182  A    between atoms: _429  and  _432
REMARK  183  A    between atoms: _432  and  _433
REMARK  184  A    between atoms: _433  and  _434
REMARK  185  A    between atoms: _437  and  _439
REMARK  186  A    between atoms: _439  and  _440
REMARK  187  A    between atoms: _442  and  _444
REMARK  188  A    between atoms: _444  and  _445
REMARK  189  A    between atoms: _444  and  _447
REMARK  190  A    between atoms: _447  and  _448
REMARK  191  A    between atoms: _449  and  _451
REMARK  192  A    between atoms: _451  and  _452
REMARK  193  A    between atoms: _455  and  _457
REMARK  194  A    between atoms: _457  and  _458
REMARK  195  A    between atoms: _457  and  _460
REMARK  196  A    between atoms: _460  and  _461
REMARK  197  A    between atoms: _461  and  _462
REMARK  198  A    between atoms: _462  and  _463
REMARK  199  A    between atoms: _472  and  _474
REMARK  200  A    between atoms: _474  and  _475
REMARK  201  A    between atoms: _474  and  _477
REMARK  202  A    between atoms: _477  and  _478
REMARK  203  A    between atoms: _478  and  _479
REMARK  204  A    between atoms: _479  and  _480
REMARK  205  A    between atoms: _480  and  _481
REMARK  206  A    between atoms: _485  and  _487
REMARK  207  A    between atoms: _487  and  _488
REMARK  208  A    between atoms: _487  and  _490
REMARK  209  A    between atoms: _490  and  _491
REMARK  210  A    between atoms: _496  and  _497
REMARK  211  A    between atoms: _499  and  _501
REMARK  212  A    between atoms: _501  and  _502
REMARK  213  A    between atoms: _504  and  _506
REMARK  214  A    between atoms: _506  and  _507
REMARK  215  A    between atoms: _506  and  _509
REMARK  216  A    between atoms: _509  and  _510
REMARK  217  A    between atoms: _513  and  _515
REMARK  218  A    between atoms: _515  and  _516
REMARK  219  A    between atoms: _515  and  _518
REMARK  220  A    between atoms: _518  and  _519
REMARK  221  A    between atoms: _524  and  _525
REMARK  222  A    between atoms: _527  and  _529
REMARK  223  A    between atoms: _529  and  _530
REMARK  224  A    between atoms: _529  and  _532
REMARK  225  A    between atoms: _532  and  _533
REMARK                            x       y       z     vdW  Elec       q    Type
REMARK                         _______ _______ _______ _____ _____    ______ ____
ROOT
ATOM      1  CB  HIS A   1       4.862  -2.198  36.324  0.00  0.00    +0.072 C 
ENDROOT
BRANCH   1   2
ATOM      2  CG  HIS A   1       5.645  -3.101  37.220  0.00  0.00    +0.082 A 
ATOM      3  ND1 HIS A   1       5.321  -3.308  38.549  0.00  0.00    -0.227 NA
ATOM      4  CE1 HIS A   1       6.208  -4.124  39.089  0.00  0.00    +0.199 A 
ATOM      5  NE2 HIS A   1       7.089  -4.458  38.158  0.00  0.00    -0.221 NA
ATOM      6  CD2 HIS A   1       6.767  -3.821  36.987  0.00  0.00    +0.115 A 
ENDBRANCH   1   2
BRANCH   1   7
ATOM      7  CA  HIS A   1       3.542  -2.799  35.825  0.00  0.00    +0.139 C 
BRANCH   7   8
ATOM      8  N   HIS A   1       2.823  -1.823  35.046  0.00  0.00    -0.239 NA
ATOM      9  H   HIS A   1       2.541  -0.931  35.500  0.00  0.00    +0.142 HD
ENDBRANCH   7   8
BRANCH   7  10
ATOM     10  C   HIS A   1       2.612  -3.146  37.001  0.00  0.00    +0.224 C 
ATOM     11  O   HIS A   1       2.252  -2.264  37.805  0.00  0.00    -0.287 OA
ENDBRANCH   7  10
ENDBRANCH   1   7
TORSDOF 4
REMARK  Name = ../refined-set-2016/2vvc/2vvc_pocket.pdb
REMARK  225 active torsions:
REMARK  status: ('A' for Active; 'I' for Inactive)
REMARK    1  A    between atoms: _1  and  _5
REMARK    2  A    between atoms: _5  and  _6
REMARK    3  A    between atoms: _5  and  _8
REMARK    4  A    between atoms: _8  and  _9
REMARK    5  A    between atoms: _12  and  _14
REMARK    6  A    between atoms: _14  and  _15
REMARK    7  A    between atoms: _14  and  _17
REMARK    8  A    between atoms: _20  and  _22
REMARK    9  A    between atoms: _22  and  _23
REMARK   10  A    between atoms: _22  and  _25
REMARK   11  A    between atoms: _25  and  _26
REMARK   12  A    between atoms: _31  and  _33
REMARK   13  A    between atoms: _33  and  _34
REMARK   14  A    between atoms: _33  and  _36
REMARK   15  A    between atoms: _36  and  _37
REMARK   16  A    between atoms: _37  and  _38
REMARK   17  A    between atoms: _43  and  _45
REMARK   18  A    between atoms: _45  and  _46
REMARK   19  A    between atoms: _45  and  _48
REMARK   20  A    between atoms: _48  and  _49
REMARK   21  A    between atoms: _55  and  _57
REMARK   22  A    between atoms: _57  and  _58
REMARK   23  A    between atoms: _57  and  _60
REMARK   24  A    between atoms: _60  and  _61
REMARK   25  A    between atoms: _64  and  _66
REMARK   26  A    between atoms: _66  and  _67
REMARK   27  A    between atoms: _66  and  _69
REMARK   28  A    between atoms: _69  and  _70
REMARK   29  A    between atoms: _70  and  _71
REMARK   30  A    between atoms: _71  and  _72
REMARK   31  A    between atoms: _72  and  _73
REMARK   32  A    between atoms: _77  and  _79
REMARK   33  A    between atoms: _79  and  _80
REMARK   34  A    between atoms: _79  and  _82
REMARK   35  A    between atoms: _82  and  _83
REMARK   36  A    between atoms: _83  and  _84
REMARK   37  A    between atoms: _87  and  _89
REMARK   38  A    between atoms: _89  and  _90
REMARK   39  A    between atoms: _89  and  _92
REMARK   40  A    between atoms: _92  and  _93
REMARK   41  A    between atoms: _96  and  _98
REMARK   42  A    between atoms: _98  and  _99
REMARK   43  A    between atoms: _98  and  _101
REMARK   44  A    between atoms: _101  and  _102
REMARK   45  A    between atoms: _107  and  _108
REMARK   46  A    between atoms: _110  and  _112
REMARK   47  A    between atoms: _112  and  _113
REMARK   48  A    between atoms: _112  and  _115
REMARK   49  A    between atoms: _115  and  _116
REMARK   50  A    between atoms: _119  and  _121
REMARK   51  A    between atoms: _121  and  _122
REMARK   52  A    between atoms: _121  and  _124
REMARK   53  A    between atoms: _124  and  _125
REMARK   54  A    between atoms: _128  and  _130
REMARK   55  A    between atoms: _130  and  _131
REMARK   56  A    between atoms: _130  and  _133
REMARK   57  A    between atoms: _136  and  _138
REMARK   58  A    between atoms: _138  and  _139
REMARK   59  A    between atoms: _138  and  _141
REMARK   60  A    between atoms: _141  and  _142
REMARK   61  A    between atoms: _142  and  _143
REMARK   62  A    between atoms: _143  and  _144
REMARK   63  A    between atoms: _153  and  _155
REMARK   64  A    between atoms: _155  and  _156
REMARK   65  A    between atoms: _155  and  _158
REMARK   66  A    between atoms: _158  and  _159
REMARK   67  A    between atoms: _164  and  _166
REMARK   68  A    between atoms: _166  and  _167
REMARK   69  A    between atoms: _166  and  _169
REMARK   70  A    between atoms: _169  and  _170
REMARK   71  A    between atoms: _170  and  _171
REMARK   72  A    between atoms: _174  and  _176
REMARK   73  A    between atoms: _176  and  _177
REMARK   74  A    between atoms: _176  and  _179
REMARK   75  A    between atoms: _179  and  _180
REMARK   76  A    between atoms: _180  and  _181
REMARK   77  A    between atoms: _181  and  _182
REMARK   78  A    between atoms: _182  and  _183
REMARK   79  A    between atoms: _187  and  _189
REMARK   80  A    between atoms: _189  and  _190
REMARK   81  A    between atoms: _192  and  _194
REMARK   82  A    between atoms: _194  and  _195
REMARK   83  A    between atoms: _194  and  _197
REMARK   84  A    between atoms: _200  and  _202
REMARK   85  A    between atoms: _202  and  _203
REMARK   86  A    between atoms: _202  and  _205
REMARK   87  A    between atoms: _205  and  _206
REMARK   88  A    between atoms: _208  and  _210
REMARK   89  A    between atoms: _210  and  _211
REMARK   90  A    between atoms: _210  and  _213
REMARK   91  A    between atoms: _213  and  _214
REMARK   92  A    between atoms: _216  and  _218
REMARK   93  A    between atoms: _218  and  _219
REMARK   94  A    between atoms: _218  and  _221
REMARK   95  A    between atoms: _221  and  _222
REMARK   96  A    between atoms: _228  and  _230
REMARK   97  A    between atoms: _230  and  _231
REMARK   98  A    between atoms: _230  and  _233
REMARK   99  A    between atoms: _233  and  _234
REMARK  100  A    between atoms: _237  and  _239
REMARK  101  A    between atoms: _239  and  _240
REMARK  102  A    between atoms: _239  and  _242
REMARK  103  A    between atoms: _242  and  _243
REMARK  104  A    between atoms: _246  and  _248
REMARK  105  A    between atoms: _248  and  _249
REMARK  106  A    between atoms: _248  and  _251
REMARK  107  A    between atoms: _251  and  _252
REMARK  108  A    between atoms: _255  and  _257
REMARK  109  A    between atoms: _257  and  _258
REMARK  110  A    between atoms: _257  and  _260
REMARK  111  A    between atoms: _260  and  _261
REMARK  112  A    between atoms: _261  and  _262
REMARK  113  A    between atoms: _264  and  _266
REMARK  114  A    between atoms: _266  and  _267
REMARK  115  A    between atoms: _266  and  _269
REMARK  116  A    between atoms: _269  and  _270
REMARK  117  A    between atoms: _276  and  _278
REMARK  118  A    between atoms: _278  and  _279
REMARK  119  A    between atoms: _278  and  _281
REMARK  120  A    between atoms: _283  and  _285
REMARK  121  A    between atoms: _285  and  _286
REMARK  122  A    between atoms: _289  and  _291
REMARK  123  A    between atoms: _291  and  _292
REMARK  124  A    between atoms: _294  and  _296
REMARK  125  A    between atoms: _296  and  _297
REMARK  126  A    between atoms: _296  and  _299
REMARK  127  A    between atoms: _299  and  _300
REMARK  128  A    between atoms: _300  and  _301
REMARK  129  A    between atoms: _304  and  _306
REMARK  130  A    between atoms: _306  and  _307
REMARK  131  A    between atoms: _306  and  _309
REMARK  132  A    between atoms: _309  and  _310
REMARK  133  A    between atoms: _313  and  _315
REMARK  134  A    between atoms: _315  and  _316
REMARK  135  A    between atoms: _319  and  _321
REMARK  136  A    between atoms: _321  and  _322
REMARK  137  A    between atoms: _321  and  _324
REMARK  138  A    between atoms: _324  and  _325
REMARK  139  A    between atoms: _325  and  _448
REMARK  140  A    between atoms: _326  and  _328
REMARK  141  A    between atoms: _328  and  _329
REMARK  142  A    between atoms: _328  and  _331
REMARK  143  A    between atoms: _331  and  _332
REMARK  144  A    between atoms: _332  and  _333
REMARK  145  A    between atoms: _338  and  _340
REMARK  146  A    between atoms: _340  and  _341
REMARK  147  A    between atoms: _343  and  _345
REMARK  148  A    between atoms: _345  and  _346
REMARK  149  A    between atoms: _345  and  _348
REMARK  150  A    between atoms: _348  and  _349
REMARK  151  A    between atoms: _352  and  _354
REMARK  152  A    between atoms: _354  and  _355
REMARK  153  A    between atoms: _354  and  _357
REMARK  154  A    between atoms: _357  and  _358
REMARK  155  A    between atoms: _360  and  _362
REMARK  156  A    between atoms: _362  and  _363
REMARK  157  A    between atoms: _365  and  _367
REMARK  158  A    between atoms: _367  and  _368
REMARK  159  A    between atoms: _370  and  _372
REMARK  160  A    between atoms: _372  and  _373
REMARK  161  A    between atoms: _372  and  _375
REMARK  162  A    between atoms: _375  and  _376
REMARK  163  A    between atoms: _381  and  _383
REMARK  164  A    between atoms: _383  and  _384
REMARK  165  A    between atoms: _383  and  _386
REMARK  166  A    between atoms: _386  and  _387
REMARK  167  A    between atoms: _390  and  _392
REMARK  168  A    between atoms: _392  and  _393
REMARK  169  A    between atoms: _392  and  _395
REMARK  170  A    between atoms: _398  and  _400
REMARK  171  A    between atoms: _400  and  _401
REMARK  172  A    between atoms: _400  and  _403
REMARK  173  A    between atoms: _403  and  _404
REMARK  174  A    between atoms: _406  and  _408
REMARK  175  A    between atoms: _408  and  _409
REMARK  176  A    between atoms: _408  and  _411
REMARK  177  A    between atoms: _411  and  _412
REMARK  178  A    between atoms: _422  and  _424
REMARK  179  A    between atoms: _424  and  _425
REMARK  180  A    between atoms: _427  and  _429
REMARK  181  A    between atoms: _429  and  _430
REMARK  182  A    between atoms: _429  and  _432
REMARK  183  A    between atoms: _432  and  _433
REMARK  184  A    between atoms: _433  and  _434
REMARK  185  A    between atoms: _437  and  _439
REMARK  186  A    between atoms: _439  and  _440
REMARK  187  A    between atoms: _442  and  _444
REMARK  188  A    between atoms: _444  and  _445
REMARK  189  A    between atoms: _444  and  _447
REMARK  190  A    between atoms: _447  and  _448
REMARK  191  A    between atoms: _449  and  _451
REMARK  192  A    between atoms: _451  and  _452
REMARK  193  A    between atoms: _455  and  _457
REMARK  194  A    between atoms: _457  and  _458
REMARK  195  A    between atoms: _457  and  _460
REMARK  196  A    between atoms: _460  and  _461
REMARK  197  A    between atoms: _461  and  _462
REMARK  198  A    between atoms: _462  and  _463
REMARK  199  A    between atoms: _472  and  _474
REMARK  200  A    between atoms: _474  and  _475
REMARK  201  A    between atoms: _474  and  _477
REMARK  202  A    between atoms: _477  and  _478
REMARK  203  A    between atoms: _478  and  _479
REMARK  204  A    between atoms: _479  and  _480
REMARK  205  A    between atoms: _480  and  _481
REMARK  206  A    between atoms: _485  and  _487
REMARK  207  A    between atoms: _487  and  _488
REMARK  208  A    between atoms: _487  and  _490
REMARK  209  A    between atoms: _490  and  _491
REMARK  210  A    between atoms: _496  and  _497
REMARK  211  A    between atoms: _499  and  _501
REMARK  212  A    between atoms: _501  and  _502
REMARK  213  A    between atoms: _504  and  _506
REMARK  214  A    between atoms: _506  and  _507
REMARK  215  A    between atoms: _506  and  _509
REMARK  216  A    between atoms: _509  and  _510
REMARK  217  A    between atoms: _513  and  _515
REMARK  218  A    between atoms: _515  and  _516
REMARK  219  A    between atoms: _515  and  _518
REMARK  220  A    between atoms: _518  and  _519
REMARK  221  A    between atoms: _524  and  _525
REMARK  222  A    between atoms: _527  and  _529
REMARK  223  A    between atoms: _529  and  _530
REMARK  224  A    between atoms: _529  and  _532
REMARK  225  A    between atoms: _532  and  _533
REMARK                            x       y       z     vdW  Elec       q    Type
REMARK                         _______ _______ _______ _____ _____    ______ ____
ROOT
ATOM      1  C   GLY A   3      13.757  -0.694  34.559  0.00  0.00    +0.243 C 
ATOM      2  O   GLY A   3      13.807  -1.159  35.712  0.00  0.00    -0.273 OA
ATOM      3  N   ILE A   4      13.478   0.590  34.278  0.00  0.00    -0.297 N 
ATOM      4  H   ILE A   4      13.452   0.892  33.283  0.00  0.00    +0.150 HD
ENDROOT
BRANCH   3   5
ATOM      5  CA  ILE A   4      13.212   1.569  35.315  0.00  0.00    +0.149 C 
BRANCH   5   6
ATOM      6  C   ILE A   4      11.744   1.986  35.251  0.00  0.00    +0.241 C 
ATOM      7  N   TYR A   5      11.074   1.889  36.405  0.00  0.00    -0.297 N 
ATOM      8  H   TYR A   5      11.612   1.654  37.263  0.00  0.00    +0.150 HD
ATOM      9  O   ILE A   4      11.244   2.370  34.195  0.00  0.00    -0.273 OA
BRANCH   7  10
ATOM     10  CA  TYR A   5       9.650   2.090  36.533  0.00  0.00    +0.153 C 
BRANCH  10  11
ATOM     11  C   TYR A   5       9.406   3.162  37.553  0.00  0.00    +0.241 C 
ATOM     12  O   TYR A   5      10.173   3.276  38.534  0.00  0.00    -0.273 OA
ATOM     13  N   THR A   6       8.367   3.973  37.292  0.00  0.00    -0.296 N 
ATOM     14  H   THR A   6       7.888   3.882  36.373  0.00  0.00    +0.150 HD
BRANCH  13  15
ATOM     15  CA  THR A   6       7.881   4.965  38.223  0.00  0.00    +0.164 C 
BRANCH  15  16
ATOM     16  CB  THR A   6       6.750   5.766  37.604  0.00  0.00    +0.136 C 
ATOM     17  CG2 THR A   6       6.247   6.843  38.592  0.00  0.00    +0.034 C 
BRANCH  16  18
ATOM     18  OG1 THR A   6       7.214   6.371  36.391  0.00  0.00    -0.382 OA
ATOM     19  HG1 THR A   6       6.480   6.895  35.983  0.00  0.00    +0.210 HD
ENDBRANCH  16  18
ENDBRANCH  15  16
BRANCH  15  20
ATOM     20  C   THR A   6       7.301   4.231  39.434  0.00  0.00    +0.229 C 
ATOM     21  O   THR A   6       6.560   3.294  39.263  0.00  0.00    -0.286 OA
ENDBRANCH  15  20
ENDBRANCH  13  15
ENDBRANCH  10  11
BRANCH  10  22
ATOM     22  CB  TYR A   5       8.982   0.819  37.008  0.00  0.00    +0.055 C 
BRANCH  22  23
ATOM     23  CG  TYR A   5       9.121  -0.347  36.044  0.00  0.00    -0.020 A 
ATOM     24  CD2 TYR A   5      10.319  -1.064  35.968  0.00  0.00    -0.001 A 
ATOM     25  CE2 TYR A   5      10.456  -2.108  35.117  0.00  0.00    +0.036 A 
ATOM     26  CZ  TYR A   5       9.410  -2.455  34.281  0.00  0.00    +0.134 A 
ATOM     27  CE1 TYR A   5       8.224  -1.755  34.307  0.00  0.00    +0.036 A 
ATOM     28  CD1 TYR A   5       8.083  -0.700  35.192  0.00  0.00    -0.001 A 
BRANCH  26  29
ATOM     29  OH  TYR A   5       9.585  -3.511  33.418  0.00  0.00    -0.506 OA
ATOM     30  HH  TYR A   5      10.342  -3.317  32.811  0.00  0.00    +0.292 HD
ENDBRANCH  26  29
ENDBRANCH  22  23
ENDBRANCH  10  22
ENDBRANCH   7  10
ENDBRANCH   5   6
BRANCH   5  31
ATOM     31  CB  ILE A   4      14.118   2.811  35.196  0.00  0.00    +0.027 C 
ATOM     32  CG2 ILE A   4      14.010   3.650  36.438  0.00  0.00    +0.002 C 
BRANCH  31  33
ATOM     33  CG1 ILE A   4      15.596   2.431  34.889  0.00  0.00    +0.002 C 
ATOM     34  CD1 ILE A   4      16.359   1.728  36.027  0.00  0.00    +0.000 C 
ENDBRANCH  31  33
ENDBRANCH   5  31
ENDBRANCH   3   5
BRANCH   1  35
ATOM     35  CA  GLY A   3      14.038  -1.605  33.377  0.00  0.00    +0.176 C 
BRANCH  35  37
ATOM     36  C   TYR A   2      16.429  -2.066  33.567  0.00  0.00    +0.241 C 
ATOM     37  N   GLY A   3      15.168  -2.466  33.732  0.00  0.00    -0.295 N 
ATOM     38  H   GLY A   3      14.982  -3.412  34.122  0.00  0.00    +0.150 HD
ATOM     39  O   TYR A   2      16.723  -1.010  32.994  0.00  0.00    -0.273 OA
BRANCH  36  40
ATOM     40  CA  TYR A   2      17.517  -2.986  34.141  0.00  0.00    +0.153 C 
BRANCH  40  42
ATOM     41  C   LYS A   1      19.639  -3.208  33.024  0.00  0.00    +0.238 C 
ATOM     42  N   TYR A   2      18.860  -2.512  33.843  0.00  0.00    -0.297 N 
ATOM     43  H   TYR A   2      19.209  -1.630  34.270  0.00  0.00    +0.150 HD
ATOM     44  O   LYS A   1      19.307  -4.312  32.546  0.00  0.00    -0.274 OA
BRANCH  41  45
ATOM     45  CA  LYS A   1      20.987  -2.622  32.704  0.00  0.00    +0.145 C 
BRANCH  45  46
ATOM     46  N   LYS A   1      21.860  -3.767  32.578  0.00  0.00    -0.238 NA
ATOM     47  H   LYS A   1      21.556  -4.580  32.005  0.00  0.00    +0.142 HD
ENDBRANCH  45  46
BRANCH  45  48
ATOM     48  CB  LYS A   1      20.939  -1.842  31.388  0.00  0.00    +0.026 C 
BRANCH  48  49
ATOM     49  CG  LYS A   1      22.256  -1.162  31.015  0.00  0.00    -0.000 C 
BRANCH  49  50
ATOM     50  CD  LYS A   1      22.621  -0.061  31.985  0.00  0.00    -0.024 C 
BRANCH  50  51
ATOM     51  CE  LYS A   1      23.937   0.598  31.548  0.00  0.00    -0.086 C 
BRANCH  51  52
ATOM     52  NZ  LYS A   1      24.559   1.396  32.617  0.00  0.00    +0.380 N 
ATOM     53  HZ1 LYS A   1      24.766   0.782  33.431  0.00  0.00    -0.089 HD
ATOM     54  HZ2 LYS A   1      23.906   2.152  32.908  0.00  0.00    -0.089 HD
ATOM     55  HZ3 LYS A   1      25.443   1.816  32.265  0.00  0.00    -0.089 HD
ENDBRANCH  51  52
ENDBRANCH  50  51
ENDBRANCH  49  50
ENDBRANCH  48  49
ENDBRANCH  45  48
ENDBRANCH  41  45
ENDBRANCH  40  42
BRANCH  40  56
ATOM     56  CB  TYR A   2      17.355  -3.169  35.667  0.00  0.00    +0.055 C 
BRANCH  56  57
ATOM     57  CG  TYR A   2      18.393  -4.096  36.240  0.00  0.00    -0.020 A 
ATOM     58  CD2 TYR A   2      19.568  -3.602  36.780  0.00  0.00    -0.001 A 
ATOM     59  CE2 TYR A   2      20.534  -4.450  37.291  0.00  0.00    +0.036 A 
ATOM     60  CZ  TYR A   2      20.339  -5.820  37.254  0.00  0.00    +0.134 A 
ATOM     61  CE1 TYR A   2      19.177  -6.338  36.712  0.00  0.00    +0.036 A 
ATOM     62  CD1 TYR A   2      18.215  -5.469  36.205  0.00  0.00    -0.001 A 
BRANCH  60  63
ATOM     63  OH  TYR A   2      21.316  -6.665  37.764  0.00  0.00    -0.506 OA
ATOM     64  HH  TYR A   2      21.456  -6.464  38.723  0.00  0.00    +0.292 HD
ENDBRANCH  60  63
ENDBRANCH  56  57
ENDBRANCH  40  56
ENDBRANCH  36  40
ENDBRANCH  35  37
ENDBRANCH   1  35
TORSDOF 27
REMARK  Name = ../refined-set-2016/2vvc/2vvc_pocket.pdb
REMARK  225 active torsions:
REMARK  status: ('A' for Active; 'I' for Inactive)
REMARK    1  A    between atoms: _1  and  _5
REMARK    2  A    between atoms: _5  and  _6
REMARK    3  A    between atoms: _5  and  _8
REMARK    4  A    between atoms: _8  and  _9
REMARK    5  A    between atoms: _12  and  _14
REMARK    6  A    between atoms: _14  and  _15
REMARK    7  A    between atoms: _14  and  _17
REMARK    8  A    between atoms: _20  and  _22
REMARK    9  A    between atoms: _22  and  _23
REMARK   10  A    between atoms: _22  and  _25
REMARK   11  A    between atoms: _25  and  _26
REMARK   12  A    between atoms: _31  and  _33
REMARK   13  A    between atoms: _33  and  _34
REMARK   14  A    between atoms: _33  and  _36
REMARK   15  A    between atoms: _36  and  _37
REMARK   16  A    between atoms: _37  and  _38
REMARK   17  A    between atoms: _43  and  _45
REMARK   18  A    between atoms: _45  and  _46
REMARK   19  A    between atoms: _45  and  _48
REMARK   20  A    between atoms: _48  and  _49
REMARK   21  A    between atoms: _55  and  _57
REMARK   22  A    between atoms: _57  and  _58
REMARK   23  A    between atoms: _57  and  _60
REMARK   24  A    between atoms: _60  and  _61
REMARK   25  A    between atoms: _64  and  _66
REMARK   26  A    between atoms: _66  and  _67
REMARK   27  A    between atoms: _66  and  _69
REMARK   28  A    between atoms: _69  and  _70
REMARK   29  A    between atoms: _70  and  _71
REMARK   30  A    between atoms: _71  and  _72
REMARK   31  A    between atoms: _72  and  _73
REMARK   32  A    between atoms: _77  and  _79
REMARK   33  A    between atoms: _79  and  _80
REMARK   34  A    between atoms: _79  and  _82
REMARK   35  A    between atoms: _82  and  _83
REMARK   36  A    between atoms: _83  and  _84
REMARK   37  A    between atoms: _87  and  _89
REMARK   38  A    between atoms: _89  and  _90
REMARK   39  A    between atoms: _89  and  _92
REMARK   40  A    between atoms: _92  and  _93
REMARK   41  A    between atoms: _96  and  _98
REMARK   42  A    between atoms: _98  and  _99
REMARK   43  A    between atoms: _98  and  _101
REMARK   44  A    between atoms: _101  and  _102
REMARK   45  A    between atoms: _107  and  _108
REMARK   46  A    between atoms: _110  and  _112
REMARK   47  A    between atoms: _112  and  _113
REMARK   48  A    between atoms: _112  and  _115
REMARK   49  A    between atoms: _115  and  _116
REMARK   50  A    between atoms: _119  and  _121
REMARK   51  A    between atoms: _121  and  _122
REMARK   52  A    between atoms: _121  and  _124
REMARK   53  A    between atoms: _124  and  _125
REMARK   54  A    between atoms: _128  and  _130
REMARK   55  A    between atoms: _130  and  _131
REMARK   56  A    between atoms: _130  and  _133
REMARK   57  A    between atoms: _136  and  _138
REMARK   58  A    between atoms: _138  and  _139
REMARK   59  A    between atoms: _138  and  _141
REMARK   60  A    between atoms: _141  and  _142
REMARK   61  A    between atoms: _142  and  _143
REMARK   62  A    between atoms: _143  and  _144
REMARK   63  A    between atoms: _153  and  _155
REMARK   64  A    between atoms: _155  and  _156
REMARK   65  A    between atoms: _155  and  _158
REMARK   66  A    between atoms: _158  and  _159
REMARK   67  A    between atoms: _164  and  _166
REMARK   68  A    between atoms: _166  and  _167
REMARK   69  A    between atoms: _166  and  _169
REMARK   70  A    between atoms: _169  and  _170
REMARK   71  A    between atoms: _170  and  _171
REMARK   72  A    between atoms: _174  and  _176
REMARK   73  A    between atoms: _176  and  _177
REMARK   74  A    between atoms: _176  and  _179
REMARK   75  A    between atoms: _179  and  _180
REMARK   76  A    between atoms: _180  and  _181
REMARK   77  A    between atoms: _181  and  _182
REMARK   78  A    between atoms: _182  and  _183
REMARK   79  A    between atoms: _187  and  _189
REMARK   80  A    between atoms: _189  and  _190
REMARK   81  A    between atoms: _192  and  _194
REMARK   82  A    between atoms: _194  and  _195
REMARK   83  A    between atoms: _194  and  _197
REMARK   84  A    between atoms: _200  and  _202
REMARK   85  A    between atoms: _202  and  _203
REMARK   86  A    between atoms: _202  and  _205
REMARK   87  A    between atoms: _205  and  _206
REMARK   88  A    between atoms: _208  and  _210
REMARK   89  A    between atoms: _210  and  _211
REMARK   90  A    between atoms: _210  and  _213
REMARK   91  A    between atoms: _213  and  _214
REMARK   92  A    between atoms: _216  and  _218
REMARK   93  A    between atoms: _218  and  _219
REMARK   94  A    between atoms: _218  and  _221
REMARK   95  A    between atoms: _221  and  _222
REMARK   96  A    between atoms: _228  and  _230
REMARK   97  A    between atoms: _230  and  _231
REMARK   98  A    between atoms: _230  and  _233
REMARK   99  A    between atoms: _233  and  _234
REMARK  100  A    between atoms: _237  and  _239
REMARK  101  A    between atoms: _239  and  _240
REMARK  102  A    between atoms: _239  and  _242
REMARK  103  A    between atoms: _242  and  _243
REMARK  104  A    between atoms: _246  and  _248
REMARK  105  A    between atoms: _248  and  _249
REMARK  106  A    between atoms: _248  and  _251
REMARK  107  A    between atoms: _251  and  _252
REMARK  108  A    between atoms: _255  and  _257
REMARK  109  A    between atoms: _257  and  _258
REMARK  110  A    between atoms: _257  and  _260
REMARK  111  A    between atoms: _260  and  _261
REMARK  112  A    between atoms: _261  and  _262
REMARK  113  A    between atoms: _264  and  _266
REMARK  114  A    between atoms: _266  and  _267
REMARK  115  A    between atoms: _266  and  _269
REMARK  116  A    between atoms: _269  and  _270
REMARK  117  A    between atoms: _276  and  _278
REMARK  118  A    between atoms: _278  and  _279
REMARK  119  A    between atoms: _278  and  _281
REMARK  120  A    between atoms: _283  and  _285
REMARK  121  A    between atoms: _285  and  _286
REMARK  122  A    between atoms: _289  and  _291
REMARK  123  A    between atoms: _291  and  _292
REMARK  124  A    between atoms: _294  and  _296
REMARK  125  A    between atoms: _296  and  _297
REMARK  126  A    between atoms: _296  and  _299
REMARK  127  A    between atoms: _299  and  _300
REMARK  128  A    between atoms: _300  and  _301
REMARK  129  A    between atoms: _304  and  _306
REMARK  130  A    between atoms: _306  and  _307
REMARK  131  A    between atoms: _306  and  _309
REMARK  132  A    between atoms: _309  and  _310
REMARK  133  A    between atoms: _313  and  _315
REMARK  134  A    between atoms: _315  and  _316
REMARK  135  A    between atoms: _319  and  _321
REMARK  136  A    between atoms: _321  and  _322
REMARK  137  A    between atoms: _321  and  _324
REMARK  138  A    between atoms: _324  and  _325
REMARK  139  A    between atoms: _325  and  _448
REMARK  140  A    between atoms: _326  and  _328
REMARK  141  A    between atoms: _328  and  _329
REMARK  142  A    between atoms: _328  and  _331
REMARK  143  A    between atoms: _331  and  _332
REMARK  144  A    between atoms: _332  and  _333
REMARK  145  A    between atoms: _338  and  _340
REMARK  146  A    between atoms: _340  and  _341
REMARK  147  A    between atoms: _343  and  _345
REMARK  148  A    between atoms: _345  and  _346
REMARK  149  A    between atoms: _345  and  _348
REMARK  150  A    between atoms: _348  and  _349
REMARK  151  A    between atoms: _352  and  _354
REMARK  152  A    between atoms: _354  and  _355
REMARK  153  A    between atoms: _354  and  _357
REMARK  154  A    between atoms: _357  and  _358
REMARK  155  A    between atoms: _360  and  _362
REMARK  156  A    between atoms: _362  and  _363
REMARK  157  A    between atoms: _365  and  _367
REMARK  158  A    between atoms: _367  and  _368
REMARK  159  A    between atoms: _370  and  _372
REMARK  160  A    between atoms: _372  and  _373
REMARK  161  A    between atoms: _372  and  _375
REMARK  162  A    between atoms: _375  and  _376
REMARK  163  A    between atoms: _381  and  _383
REMARK  164  A    between atoms: _383  and  _384
REMARK  165  A    between atoms: _383  and  _386
REMARK  166  A    between atoms: _386  and  _387
REMARK  167  A    between atoms: _390  and  _392
REMARK  168  A    between atoms: _392  and  _393
REMARK  169  A    between atoms: _392  and  _395
REMARK  170  A    between atoms: _398  and  _400
REMARK  171  A    between atoms: _400  and  _401
REMARK  172  A    between atoms: _400  and  _403
REMARK  173  A    between atoms: _403  and  _404
REMARK  174  A    between atoms: _406  and  _408
REMARK  175  A    between atoms: _408  and  _409
REMARK  176  A    between atoms: _408  and  _411
REMARK  177  A    between atoms: _411  and  _412
REMARK  178  A    between atoms: _422  and  _424
REMARK  179  A    between atoms: _424  and  _425
REMARK  180  A    between atoms: _427  and  _429
REMARK  181  A    between atoms: _429  and  _430
REMARK  182  A    between atoms: _429  and  _432
REMARK  183  A    between atoms: _432  and  _433
REMARK  184  A    between atoms: _433  and  _434
REMARK  185  A    between atoms: _437  and  _439
REMARK  186  A    between atoms: _439  and  _440
REMARK  187  A    between atoms: _442  and  _444
REMARK  188  A    between atoms: _444  and  _445
REMARK  189  A    between atoms: _444  and  _447
REMARK  190  A    between atoms: _447  and  _448
REMARK  191  A    between atoms: _449  and  _451
REMARK  192  A    between atoms: _451  and  _452
REMARK  193  A    between atoms: _455  and  _457
REMARK  194  A    between atoms: _457  and  _458
REMARK  195  A    between atoms: _457  and  _460
REMARK  196  A    between atoms: _460  and  _461
REMARK  197  A    between atoms: _461  and  _462
REMARK  198  A    between atoms: _462  and  _463
REMARK  199  A    between atoms: _472  and  _474
REMARK  200  A    between atoms: _474  and  _475
REMARK  201  A    between atoms: _474  and  _477
REMARK  202  A    between atoms: _477  and  _478
REMARK  203  A    between atoms: _478  and  _479
REMARK  204  A    between atoms: _479  and  _480
REMARK  205  A    between atoms: _480  and  _481
REMARK  206  A    between atoms: _485  and  _487
REMARK  207  A    between atoms: _487  and  _488
REMARK  208  A    between atoms: _487  and  _490
REMARK  209  A    between atoms: _490  and  _491
REMARK  210  A    between atoms: _496  and  _497
REMARK  211  A    between atoms: _499  and  _501
REMARK  212  A    between atoms: _501  and  _502
REMARK  213  A    between atoms: _504  and  _506
REMARK  214  A    between atoms: _506  and  _507
REMARK  215  A    between atoms: _506  and  _509
REMARK  216  A    between atoms: _509  and  _510
REMARK  217  A    between atoms: _513  and  _515
REMARK  218  A    between atoms: _515  and  _516
REMARK  219  A    between atoms: _515  and  _518
REMARK  220  A    between atoms: _518  and  _519
REMARK  221  A    between atoms: _524  and  _525
REMARK  222  A    between atoms: _527  and  _529
REMARK  223  A    between atoms: _529  and  _530
REMARK  224  A    between atoms: _529  and  _532
REMARK  225  A    between atoms: _532  and  _533
REMARK                            x       y       z     vdW  Elec       q    Type
REMARK                         _______ _______ _______ _____ _____    ______ ____
ROOT
ATOM      1  O   HOH     1       7.640   5.109  21.487  0.00  0.00    +0.000 OA
ENDROOT
TORSDOF 0
REMARK  Name = ../refined-set-2016/2vvc/2vvc_pocket.pdb
REMARK  225 active torsions:
REMARK  status: ('A' for Active; 'I' for Inactive)
REMARK    1  A    between atoms: _1  and  _5
REMARK    2  A    between atoms: _5  and  _6
REMARK    3  A    between atoms: _5  and  _8
REMARK    4  A    between atoms: _8  and  _9
REMARK    5  A    between atoms: _12  and  _14
REMARK    6  A    between atoms: _14  and  _15
REMARK    7  A    between atoms: _14  and  _17
REMARK    8  A    between atoms: _20  and  _22
REMARK    9  A    between atoms: _22  and  _23
REMARK   10  A    between atoms: _22  and  _25
REMARK   11  A    between atoms: _25  and  _26
REMARK   12  A    between atoms: _31  and  _33
REMARK   13  A    between atoms: _33  and  _34
REMARK   14  A    between atoms: _33  and  _36
REMARK   15  A    between atoms: _36  and  _37
REMARK   16  A    between atoms: _37  and  _38
REMARK   17  A    between atoms: _43  and  _45
REMARK   18  A    between atoms: _45  and  _46
REMARK   19  A    between atoms: _45  and  _48
REMARK   20  A    between atoms: _48  and  _49
REMARK   21  A    between atoms: _55  and  _57
REMARK   22  A    between atoms: _57  and  _58
REMARK   23  A    between atoms: _57  and  _60
REMARK   24  A    between atoms: _60  and  _61
REMARK   25  A    between atoms: _64  and  _66
REMARK   26  A    between atoms: _66  and  _67
REMARK   27  A    between atoms: _66  and  _69
REMARK   28  A    between atoms: _69  and  _70
REMARK   29  A    between atoms: _70  and  _71
REMARK   30  A    between atoms: _71  and  _72
REMARK   31  A    between atoms: _72  and  _73
REMARK   32  A    between atoms: _77  and  _79
REMARK   33  A    between atoms: _79  and  _80
REMARK   34  A    between atoms: _79  and  _82
REMARK   35  A    between atoms: _82  and  _83
REMARK   36  A    between atoms: _83  and  _84
REMARK   37  A    between atoms: _87  and  _89
REMARK   38  A    between atoms: _89  and  _90
REMARK   39  A    between atoms: _89  and  _92
REMARK   40  A    between atoms: _92  and  _93
REMARK   41  A    between atoms: _96  and  _98
REMARK   42  A    between atoms: _98  and  _99
REMARK   43  A    between atoms: _98  and  _101
REMARK   44  A    between atoms: _101  and  _102
REMARK   45  A    between atoms: _107  and  _108
REMARK   46  A    between atoms: _110  and  _112
REMARK   47  A    between atoms: _112  and  _113
REMARK   48  A    between atoms: _112  and  _115
REMARK   49  A    between atoms: _115  and  _116
REMARK   50  A    between atoms: _119  and  _121
REMARK   51  A    between atoms: _121  and  _122
REMARK   52  A    between atoms: _121  and  _124
REMARK   53  A    between atoms: _124  and  _125
REMARK   54  A    between atoms: _128  and  _130
REMARK   55  A    between atoms: _130  and  _131
REMARK   56  A    between atoms: _130  and  _133
REMARK   57  A    between atoms: _136  and  _138
REMARK   58  A    between atoms: _138  and  _139
REMARK   59  A    between atoms: _138  and  _141
REMARK   60  A    between atoms: _141  and  _142
REMARK   61  A    between atoms: _142  and  _143
REMARK   62  A    between atoms: _143  and  _144
REMARK   63  A    between atoms: _153  and  _155
REMARK   64  A    between atoms: _155  and  _156
REMARK   65  A    between atoms: _155  and  _158
REMARK   66  A    between atoms: _158  and  _159
REMARK   67  A    between atoms: _164  and  _166
REMARK   68  A    between atoms: _166  and  _167
REMARK   69  A    between atoms: _166  and  _169
REMARK   70  A    between atoms: _169  and  _170
REMARK   71  A    between atoms: _170  and  _171
REMARK   72  A    between atoms: _174  and  _176
REMARK   73  A    between atoms: _176  and  _177
REMARK   74  A    between atoms: _176  and  _179
REMARK   75  A    between atoms: _179  and  _180
REMARK   76  A    between atoms: _180  and  _181
REMARK   77  A    between atoms: _181  and  _182
REMARK   78  A    between atoms: _182  and  _183
REMARK   79  A    between atoms: _187  and  _189
REMARK   80  A    between atoms: _189  and  _190
REMARK   81  A    between atoms: _192  and  _194
REMARK   82  A    between atoms: _194  and  _195
REMARK   83  A    between atoms: _194  and  _197
REMARK   84  A    between atoms: _200  and  _202
REMARK   85  A    between atoms: _202  and  _203
REMARK   86  A    between atoms: _202  and  _205
REMARK   87  A    between atoms: _205  and  _206
REMARK   88  A    between atoms: _208  and  _210
REMARK   89  A    between atoms: _210  and  _211
REMARK   90  A    between atoms: _210  and  _213
REMARK   91  A    between atoms: _213  and  _214
REMARK   92  A    between atoms: _216  and  _218
REMARK   93  A    between atoms: _218  and  _219
REMARK   94  A    between atoms: _218  and  _221
REMARK   95  A    between atoms: _221  and  _222
REMARK   96  A    between atoms: _228  and  _230
REMARK   97  A    between atoms: _230  and  _231
REMARK   98  A    between atoms: _230  and  _233
REMARK   99  A    between atoms: _233  and  _234
REMARK  100  A    between atoms: _237  and  _239
REMARK  101  A    between atoms: _239  and  _240
REMARK  102  A    between atoms: _239  and  _242
REMARK  103  A    between atoms: _242  and  _243
REMARK  104  A    between atoms: _246  and  _248
REMARK  105  A    between atoms: _248  and  _249
REMARK  106  A    between atoms: _248  and  _251
REMARK  107  A    between atoms: _251  and  _252
REMARK  108  A    between atoms: _255  and  _257
REMARK  109  A    between atoms: _257  and  _258
REMARK  110  A    between atoms: _257  and  _260
REMARK  111  A    between atoms: _260  and  _261
REMARK  112  A    between atoms: _261  and  _262
REMARK  113  A    between atoms: _264  and  _266
REMARK  114  A    between atoms: _266  and  _267
REMARK  115  A    between atoms: _266  and  _269
REMARK  116  A    between atoms: _269  and  _270
REMARK  117  A    between atoms: _276  and  _278
REMARK  118  A    between atoms: _278  and  _279
REMARK  119  A    between atoms: _278  and  _281
REMARK  120  A    between atoms: _283  and  _285
REMARK  121  A    between atoms: _285  and  _286
REMARK  122  A    between atoms: _289  and  _291
REMARK  123  A    between atoms: _291  and  _292
REMARK  124  A    between atoms: _294  and  _296
REMARK  125  A    between atoms: _296  and  _297
REMARK  126  A    between atoms: _296  and  _299
REMARK  127  A    between atoms: _299  and  _300
REMARK  128  A    between atoms: _300  and  _301
REMARK  129  A    between atoms: _304  and  _306
REMARK  130  A    between atoms: _306  and  _307
REMARK  131  A    between atoms: _306  and  _309
REMARK  132  A    between atoms: _309  and  _310
REMARK  133  A    between atoms: _313  and  _315
REMARK  134  A    between atoms: _315  and  _316
REMARK  135  A    between atoms: _319  and  _321
REMARK  136  A    between atoms: _321  and  _322
REMARK  137  A    between atoms: _321  and  _324
REMARK  138  A    between atoms: _324  and  _325
REMARK  139  A    between atoms: _325  and  _448
REMARK  140  A    between atoms: _326  and  _328
REMARK  141  A    between atoms: _328  and  _329
REMARK  142  A    between atoms: _328  and  _331
REMARK  143  A    between atoms: _331  and  _332
REMARK  144  A    between atoms: _332  and  _333
REMARK  145  A    between atoms: _338  and  _340
REMARK  146  A    between atoms: _340  and  _341
REMARK  147  A    between atoms: _343  and  _345
REMARK  148  A    between atoms: _345  and  _346
REMARK  149  A    between atoms: _345  and  _348
REMARK  150  A    between atoms: _348  and  _349
REMARK  151  A    between atoms: _352  and  _354
REMARK  152  A    between atoms: _354  and  _355
REMARK  153  A    between atoms: _354  and  _357
REMARK  154  A    between atoms: _357  and  _358
REMARK  155  A    between atoms: _360  and  _362
REMARK  156  A    between atoms: _362  and  _363
REMARK  157  A    between atoms: _365  and  _367
REMARK  158  A    between atoms: _367  and  _368
REMARK  159  A    between atoms: _370  and  _372
REMARK  160  A    between atoms: _372  and  _373
REMARK  161  A    between atoms: _372  and  _375
REMARK  162  A    between atoms: _375  and  _376
REMARK  163  A    between atoms: _381  and  _383
REMARK  164  A    between atoms: _383  and  _384
REMARK  165  A    between atoms: _383  and  _386
REMARK  166  A    between atoms: _386  and  _387
REMARK  167  A    between atoms: _390  and  _392
REMARK  168  A    between atoms: _392  and  _393
REMARK  169  A    between atoms: _392  and  _395
REMARK  170  A    between atoms: _398  and  _400
REMARK  171  A    between atoms: _400  and  _401
REMARK  172  A    between atoms: _400  and  _403
REMARK  173  A    between atoms: _403  and  _404
REMARK  174  A    between atoms: _406  and  _408
REMARK  175  A    between atoms: _408  and  _409
REMARK  176  A    between atoms: _408  and  _411
REMARK  177  A    between atoms: _411  and  _412
REMARK  178  A    between atoms: _422  and  _424
REMARK  179  A    between atoms: _424  and  _425
REMARK  180  A    between atoms: _427  and  _429
REMARK  181  A    between atoms: _429  and  _430
REMARK  182  A    between atoms: _429  and  _432
REMARK  183  A    between atoms: _432  and  _433
REMARK  184  A    between atoms: _433  and  _434
REMARK  185  A    between atoms: _437  and  _439
REMARK  186  A    between atoms: _439  and  _440
REMARK  187  A    between atoms: _442  and  _444
REMARK  188  A    between atoms: _444  and  _445
REMARK  189  A    between atoms: _444  and  _447
REMARK  190  A    between atoms: _447  and  _448
REMARK  191  A    between atoms: _449  and  _451
REMARK  192  A    between atoms: _451  and  _452
REMARK  193  A    between atoms: _455  and  _457
REMARK  194  A    between atoms: _457  and  _458
REMARK  195  A    between atoms: _457  and  _460
REMARK  196  A    between atoms: _460  and  _461
REMARK  197  A    between atoms: _461  and  _462
REMARK  198  A    between atoms: _462  and  _463
REMARK  199  A    between atoms: _472  and  _474
REMARK  200  A    between atoms: _474  and  _475
REMARK  201  A    between atoms: _474  and  _477
REMARK  202  A    between atoms: _477  and  _478
REMARK  203  A    between atoms: _478  and  _479
REMARK  204  A    between atoms: _479  and  _480
REMARK  205  A    between atoms: _480  and  _481
REMARK  206  A    between atoms: _485  and  _487
REMARK  207  A    between atoms: _487  and  _488
REMARK  208  A    between atoms: _487  and  _490
REMARK  209  A    between atoms: _490  and  _491
REMARK  210  A    between atoms: _496  and  _497
REMARK  211  A    between atoms: _499  and  _501
REMARK  212  A    between atoms: _501  and  _502
REMARK  213  A    between atoms: _504  and  _506
REMARK  214  A    between atoms: _506  and  _507
REMARK  215  A    between atoms: _506  and  _509
REMARK  216  A    between atoms: _509  and  _510
REMARK  217  A    between atoms: _513  and  _515
REMARK  218  A    between atoms: _515  and  _516
REMARK  219  A    between atoms: _515  and  _518
REMARK  220  A    between atoms: _518  and  _519
REMARK  221  A    between atoms: _524  and  _525
REMARK  222  A    between atoms: _527  and  _529
REMARK  223  A    between atoms: _529  and  _530
REMARK  224  A    between atoms: _529  and  _532
REMARK  225  A    between atoms: _532  and  _533
REMARK                            x       y       z     vdW  Elec       q    Type
REMARK                         _______ _______ _______ _____ _____    ______ ____
ROOT
ATOM      1  O   HOH     1      17.240  13.246  39.575  0.00  0.00    +0.000 OA
ENDROOT
TORSDOF 0
REMARK  Name = ../refined-set-2016/2vvc/2vvc_pocket.pdb
REMARK  225 active torsions:
REMARK  status: ('A' for Active; 'I' for Inactive)
REMARK    1  A    between atoms: _1  and  _5
REMARK    2  A    between atoms: _5  and  _6
REMARK    3  A    between atoms: _5  and  _8
REMARK    4  A    between atoms: _8  and  _9
REMARK    5  A    between atoms: _12  and  _14
REMARK    6  A    between atoms: _14  and  _15
REMARK    7  A    between atoms: _14  and  _17
REMARK    8  A    between atoms: _20  and  _22
REMARK    9  A    between atoms: _22  and  _23
REMARK   10  A    between atoms: _22  and  _25
REMARK   11  A    between atoms: _25  and  _26
REMARK   12  A    between atoms: _31  and  _33
REMARK   13  A    between atoms: _33  and  _34
REMARK   14  A    between atoms: _33  and  _36
REMARK   15  A    between atoms: _36  and  _37
REMARK   16  A    between atoms: _37  and  _38
REMARK   17  A    between atoms: _43  and  _45
REMARK   18  A    between atoms: _45  and  _46
REMARK   19  A    between atoms: _45  and  _48
REMARK   20  A    between atoms: _48  and  _49
REMARK   21  A    between atoms: _55  and  _57
REMARK   22  A    between atoms: _57  and  _58
REMARK   23  A    between atoms: _57  and  _60
REMARK   24  A    between atoms: _60  and  _61
REMARK   25  A    between atoms: _64  and  _66
REMARK   26  A    between atoms: _66  and  _67
REMARK   27  A    between atoms: _66  and  _69
REMARK   28  A    between atoms: _69  and  _70
REMARK   29  A    between atoms: _70  and  _71
REMARK   30  A    between atoms: _71  and  _72
REMARK   31  A    between atoms: _72  and  _73
REMARK   32  A    between atoms: _77  and  _79
REMARK   33  A    between atoms: _79  and  _80
REMARK   34  A    between atoms: _79  and  _82
REMARK   35  A    between atoms: _82  and  _83
REMARK   36  A    between atoms: _83  and  _84
REMARK   37  A    between atoms: _87  and  _89
REMARK   38  A    between atoms: _89  and  _90
REMARK   39  A    between atoms: _89  and  _92
REMARK   40  A    between atoms: _92  and  _93
REMARK   41  A    between atoms: _96  and  _98
REMARK   42  A    between atoms: _98  and  _99
REMARK   43  A    between atoms: _98  and  _101
REMARK   44  A    between atoms: _101  and  _102
REMARK   45  A    between atoms: _107  and  _108
REMARK   46  A    between atoms: _110  and  _112
REMARK   47  A    between atoms: _112  and  _113
REMARK   48  A    between atoms: _112  and  _115
REMARK   49  A    between atoms: _115  and  _116
REMARK   50  A    between atoms: _119  and  _121
REMARK   51  A    between atoms: _121  and  _122
REMARK   52  A    between atoms: _121  and  _124
REMARK   53  A    between atoms: _124  and  _125
REMARK   54  A    between atoms: _128  and  _130
REMARK   55  A    between atoms: _130  and  _131
REMARK   56  A    between atoms: _130  and  _133
REMARK   57  A    between atoms: _136  and  _138
REMARK   58  A    between atoms: _138  and  _139
REMARK   59  A    between atoms: _138  and  _141
REMARK   60  A    between atoms: _141  and  _142
REMARK   61  A    between atoms: _142  and  _143
REMARK   62  A    between atoms: _143  and  _144
REMARK   63  A    between atoms: _153  and  _155
REMARK   64  A    between atoms: _155  and  _156
REMARK   65  A    between atoms: _155  and  _158
REMARK   66  A    between atoms: _158  and  _159
REMARK   67  A    between atoms: _164  and  _166
REMARK   68  A    between atoms: _166  and  _167
REMARK   69  A    between atoms: _166  and  _169
REMARK   70  A    between atoms: _169  and  _170
REMARK   71  A    between atoms: _170  and  _171
REMARK   72  A    between atoms: _174  and  _176
REMARK   73  A    between atoms: _176  and  _177
REMARK   74  A    between atoms: _176  and  _179
REMARK   75  A    between atoms: _179  and  _180
REMARK   76  A    between atoms: _180  and  _181
REMARK   77  A    between atoms: _181  and  _182
REMARK   78  A    between atoms: _182  and  _183
REMARK   79  A    between atoms: _187  and  _189
REMARK   80  A    between atoms: _189  and  _190
REMARK   81  A    between atoms: _192  and  _194
REMARK   82  A    between atoms: _194  and  _195
REMARK   83  A    between atoms: _194  and  _197
REMARK   84  A    between atoms: _200  and  _202
REMARK   85  A    between atoms: _202  and  _203
REMARK   86  A    between atoms: _202  and  _205
REMARK   87  A    between atoms: _205  and  _206
REMARK   88  A    between atoms: _208  and  _210
REMARK   89  A    between atoms: _210  and  _211
REMARK   90  A    between atoms: _210  and  _213
REMARK   91  A    between atoms: _213  and  _214
REMARK   92  A    between atoms: _216  and  _218
REMARK   93  A    between atoms: _218  and  _219
REMARK   94  A    between atoms: _218  and  _221
REMARK   95  A    between atoms: _221  and  _222
REMARK   96  A    between atoms: _228  and  _230
REMARK   97  A    between atoms: _230  and  _231
REMARK   98  A    between atoms: _230  and  _233
REMARK   99  A    between atoms: _233  and  _234
REMARK  100  A    between atoms: _237  and  _239
REMARK  101  A    between atoms: _239  and  _240
REMARK  102  A    between atoms: _239  and  _242
REMARK  103  A    between atoms: _242  and  _243
REMARK  104  A    between atoms: _246  and  _248
REMARK  105  A    between atoms: _248  and  _249
REMARK  106  A    between atoms: _248  and  _251
REMARK  107  A    between atoms: _251  and  _252
REMARK  108  A    between atoms: _255  and  _257
REMARK  109  A    between atoms: _257  and  _258
REMARK  110  A    between atoms: _257  and  _260
REMARK  111  A    between atoms: _260  and  _261
REMARK  112  A    between atoms: _261  and  _262
REMARK  113  A    between atoms: _264  and  _266
REMARK  114  A    between atoms: _266  and  _267
REMARK  115  A    between atoms: _266  and  _269
REMARK  116  A    between atoms: _269  and  _270
REMARK  117  A    between atoms: _276  and  _278
REMARK  118  A    between atoms: _278  and  _279
REMARK  119  A    between atoms: _278  and  _281
REMARK  120  A    between atoms: _283  and  _285
REMARK  121  A    between atoms: _285  and  _286
REMARK  122  A    between atoms: _289  and  _291
REMARK  123  A    between atoms: _291  and  _292
REMARK  124  A    between atoms: _294  and  _296
REMARK  125  A    between atoms: _296  and  _297
REMARK  126  A    between atoms: _296  and  _299
REMARK  127  A    between atoms: _299  and  _300
REMARK  128  A    between atoms: _300  and  _301
REMARK  129  A    between atoms: _304  and  _306
REMARK  130  A    between atoms: _306  and  _307
REMARK  131  A    between atoms: _306  and  _309
REMARK  132  A    between atoms: _309  and  _310
REMARK  133  A    between atoms: _313  and  _315
REMARK  134  A    between atoms: _315  and  _316
REMARK  135  A    between atoms: _319  and  _321
REMARK  136  A    between atoms: _321  and  _322
REMARK  137  A    between atoms: _321  and  _324
REMARK  138  A    between atoms: _324  and  _325
REMARK  139  A    between atoms: _325  and  _448
REMARK  140  A    between atoms: _326  and  _328
REMARK  141  A    between atoms: _328  and  _329
REMARK  142  A    between atoms: _328  and  _331
REMARK  143  A    between atoms: _331  and  _332
REMARK  144  A    between atoms: _332  and  _333
REMARK  145  A    between atoms: _338  and  _340
REMARK  146  A    between atoms: _340  and  _341
REMARK  147  A    between atoms: _343  and  _345
REMARK  148  A    between atoms: _345  and  _346
REMARK  149  A    between atoms: _345  and  _348
REMARK  150  A    between atoms: _348  and  _349
REMARK  151  A    between atoms: _352  and  _354
REMARK  152  A    between atoms: _354  and  _355
REMARK  153  A    between atoms: _354  and  _357
REMARK  154  A    between atoms: _357  and  _358
REMARK  155  A    between atoms: _360  and  _362
REMARK  156  A    between atoms: _362  and  _363
REMARK  157  A    between atoms: _365  and  _367
REMARK  158  A    between atoms: _367  and  _368
REMARK  159  A    between atoms: _370  and  _372
REMARK  160  A    between atoms: _372  and  _373
REMARK  161  A    between atoms: _372  and  _375
REMARK  162  A    between atoms: _375  and  _376
REMARK  163  A    between atoms: _381  and  _383
REMARK  164  A    between atoms: _383  and  _384
REMARK  165  A    between atoms: _383  and  _386
REMARK  166  A    between atoms: _386  and  _387
REMARK  167  A    between atoms: _390  and  _392
REMARK  168  A    between atoms: _392  and  _393
REMARK  169  A    between atoms: _392  and  _395
REMARK  170  A    between atoms: _398  and  _400
REMARK  171  A    between atoms: _400  and  _401
REMARK  172  A    between atoms: _400  and  _403
REMARK  173  A    between atoms: _403  and  _404
REMARK  174  A    between atoms: _406  and  _408
REMARK  175  A    between atoms: _408  and  _409
REMARK  176  A    between atoms: _408  and  _411
REMARK  177  A    between atoms: _411  and  _412
REMARK  178  A    between atoms: _422  and  _424
REMARK  179  A    between atoms: _424  and  _425
REMARK  180  A    between atoms: _427  and  _429
REMARK  181  A    between atoms: _429  and  _430
REMARK  182  A    between atoms: _429  and  _432
REMARK  183  A    between atoms: _432  and  _433
REMARK  184  A    between atoms: _433  and  _434
REMARK  185  A    between atoms: _437  and  _439
REMARK  186  A    between atoms: _439  and  _440
REMARK  187  A    between atoms: _442  and  _444
REMARK  188  A    between atoms: _444  and  _445
REMARK  189  A    between atoms: _444  and  _447
REMARK  190  A    between atoms: _447  and  _448
REMARK  191  A    between atoms: _449  and  _451
REMARK  192  A    between atoms: _451  and  _452
REMARK  193  A    between atoms: _455  and  _457
REMARK  194  A    between atoms: _457  and  _458
REMARK  195  A    between atoms: _457  and  _460
REMARK  196  A    between atoms: _460  and  _461
REMARK  197  A    between atoms: _461  and  _462
REMARK  198  A    between atoms: _462  and  _463
REMARK  199  A    between atoms: _472  and  _474
REMARK  200  A    between atoms: _474  and  _475
REMARK  201  A    between atoms: _474  and  _477
REMARK  202  A    between atoms: _477  and  _478
REMARK  203  A    between atoms: _478  and  _479
REMARK  204  A    between atoms: _479  and  _480
REMARK  205  A    between atoms: _480  and  _481
REMARK  206  A    between atoms: _485  and  _487
REMARK  207  A    between atoms: _487  and  _488
REMARK  208  A    between atoms: _487  and  _490
REMARK  209  A    between atoms: _490  and  _491
REMARK  210  A    between atoms: _496  and  _497
REMARK  211  A    between atoms: _499  and  _501
REMARK  212  A    between atoms: _501  and  _502
REMARK  213  A    between atoms: _504  and  _506
REMARK  214  A    between atoms: _506  and  _507
REMARK  215  A    between atoms: _506  and  _509
REMARK  216  A    between atoms: _509  and  _510
REMARK  217  A    between atoms: _513  and  _515
REMARK  218  A    between atoms: _515  and  _516
REMARK  219  A    between atoms: _515  and  _518
REMARK  220  A    between atoms: _518  and  _519
REMARK  221  A    between atoms: _524  and  _525
REMARK  222  A    between atoms: _527  and  _529
REMARK  223  A    between atoms: _529  and  _530
REMARK  224  A    between atoms: _529  and  _532
REMARK  225  A    between atoms: _532  and  _533
REMARK                            x       y       z     vdW  Elec       q    Type
REMARK                         _______ _______ _______ _____ _____    ______ ____
ROOT
ATOM      1  O   HOH     1      18.736   3.598  22.543  0.00  0.00    +0.000 OA
ENDROOT
TORSDOF 0
REMARK  Name = ../refined-set-2016/2vvc/2vvc_pocket.pdb
REMARK  225 active torsions:
REMARK  status: ('A' for Active; 'I' for Inactive)
REMARK    1  A    between atoms: _1  and  _5
REMARK    2  A    between atoms: _5  and  _6
REMARK    3  A    between atoms: _5  and  _8
REMARK    4  A    between atoms: _8  and  _9
REMARK    5  A    between atoms: _12  and  _14
REMARK    6  A    between atoms: _14  and  _15
REMARK    7  A    between atoms: _14  and  _17
REMARK    8  A    between atoms: _20  and  _22
REMARK    9  A    between atoms: _22  and  _23
REMARK   10  A    between atoms: _22  and  _25
REMARK   11  A    between atoms: _25  and  _26
REMARK   12  A    between atoms: _31  and  _33
REMARK   13  A    between atoms: _33  and  _34
REMARK   14  A    between atoms: _33  and  _36
REMARK   15  A    between atoms: _36  and  _37
REMARK   16  A    between atoms: _37  and  _38
REMARK   17  A    between atoms: _43  and  _45
REMARK   18  A    between atoms: _45  and  _46
REMARK   19  A    between atoms: _45  and  _48
REMARK   20  A    between atoms: _48  and  _49
REMARK   21  A    between atoms: _55  and  _57
REMARK   22  A    between atoms: _57  and  _58
REMARK   23  A    between atoms: _57  and  _60
REMARK   24  A    between atoms: _60  and  _61
REMARK   25  A    between atoms: _64  and  _66
REMARK   26  A    between atoms: _66  and  _67
REMARK   27  A    between atoms: _66  and  _69
REMARK   28  A    between atoms: _69  and  _70
REMARK   29  A    between atoms: _70  and  _71
REMARK   30  A    between atoms: _71  and  _72
REMARK   31  A    between atoms: _72  and  _73
REMARK   32  A    between atoms: _77  and  _79
REMARK   33  A    between atoms: _79  and  _80
REMARK   34  A    between atoms: _79  and  _82
REMARK   35  A    between atoms: _82  and  _83
REMARK   36  A    between atoms: _83  and  _84
REMARK   37  A    between atoms: _87  and  _89
REMARK   38  A    between atoms: _89  and  _90
REMARK   39  A    between atoms: _89  and  _92
REMARK   40  A    between atoms: _92  and  _93
REMARK   41  A    between atoms: _96  and  _98
REMARK   42  A    between atoms: _98  and  _99
REMARK   43  A    between atoms: _98  and  _101
REMARK   44  A    between atoms: _101  and  _102
REMARK   45  A    between atoms: _107  and  _108
REMARK   46  A    between atoms: _110  and  _112
REMARK   47  A    between atoms: _112  and  _113
REMARK   48  A    between atoms: _112  and  _115
REMARK   49  A    between atoms: _115  and  _116
REMARK   50  A    between atoms: _119  and  _121
REMARK   51  A    between atoms: _121  and  _122
REMARK   52  A    between atoms: _121  and  _124
REMARK   53  A    between atoms: _124  and  _125
REMARK   54  A    between atoms: _128  and  _130
REMARK   55  A    between atoms: _130  and  _131
REMARK   56  A    between atoms: _130  and  _133
REMARK   57  A    between atoms: _136  and  _138
REMARK   58  A    between atoms: _138  and  _139
REMARK   59  A    between atoms: _138  and  _141
REMARK   60  A    between atoms: _141  and  _142
REMARK   61  A    between atoms: _142  and  _143
REMARK   62  A    between atoms: _143  and  _144
REMARK   63  A    between atoms: _153  and  _155
REMARK   64  A    between atoms: _155  and  _156
REMARK   65  A    between atoms: _155  and  _158
REMARK   66  A    between atoms: _158  and  _159
REMARK   67  A    between atoms: _164  and  _166
REMARK   68  A    between atoms: _166  and  _167
REMARK   69  A    between atoms: _166  and  _169
REMARK   70  A    between atoms: _169  and  _170
REMARK   71  A    between atoms: _170  and  _171
REMARK   72  A    between atoms: _174  and  _176
REMARK   73  A    between atoms: _176  and  _177
REMARK   74  A    between atoms: _176  and  _179
REMARK   75  A    between atoms: _179  and  _180
REMARK   76  A    between atoms: _180  and  _181
REMARK   77  A    between atoms: _181  and  _182
REMARK   78  A    between atoms: _182  and  _183
REMARK   79  A    between atoms: _187  and  _189
REMARK   80  A    between atoms: _189  and  _190
REMARK   81  A    between atoms: _192  and  _194
REMARK   82  A    between atoms: _194  and  _195
REMARK   83  A    between atoms: _194  and  _197
REMARK   84  A    between atoms: _200  and  _202
REMARK   85  A    between atoms: _202  and  _203
REMARK   86  A    between atoms: _202  and  _205
REMARK   87  A    between atoms: _205  and  _206
REMARK   88  A    between atoms: _208  and  _210
REMARK   89  A    between atoms: _210  and  _211
REMARK   90  A    between atoms: _210  and  _213
REMARK   91  A    between atoms: _213  and  _214
REMARK   92  A    between atoms: _216  and  _218
REMARK   93  A    between atoms: _218  and  _219
REMARK   94  A    between atoms: _218  and  _221
REMARK   95  A    between atoms: _221  and  _222
REMARK   96  A    between atoms: _228  and  _230
REMARK   97  A    between atoms: _230  and  _231
REMARK   98  A    between atoms: _230  and  _233
REMARK   99  A    between atoms: _233  and  _234
REMARK  100  A    between atoms: _237  and  _239
REMARK  101  A    between atoms: _239  and  _240
REMARK  102  A    between atoms: _239  and  _242
REMARK  103  A    between atoms: _242  and  _243
REMARK  104  A    between atoms: _246  and  _248
REMARK  105  A    between atoms: _248  and  _249
REMARK  106  A    between atoms: _248  and  _251
REMARK  107  A    between atoms: _251  and  _252
REMARK  108  A    between atoms: _255  and  _257
REMARK  109  A    between atoms: _257  and  _258
REMARK  110  A    between atoms: _257  and  _260
REMARK  111  A    between atoms: _260  and  _261
REMARK  112  A    between atoms: _261  and  _262
REMARK  113  A    between atoms: _264  and  _266
REMARK  114  A    between atoms: _266  and  _267
REMARK  115  A    between atoms: _266  and  _269
REMARK  116  A    between atoms: _269  and  _270
REMARK  117  A    between atoms: _276  and  _278
REMARK  118  A    between atoms: _278  and  _279
REMARK  119  A    between atoms: _278  and  _281
REMARK  120  A    between atoms: _283  and  _285
REMARK  121  A    between atoms: _285  and  _286
REMARK  122  A    between atoms: _289  and  _291
REMARK  123  A    between atoms: _291  and  _292
REMARK  124  A    between atoms: _294  and  _296
REMARK  125  A    between atoms: _296  and  _297
REMARK  126  A    between atoms: _296  and  _299
REMARK  127  A    between atoms: _299  and  _300
REMARK  128  A    between atoms: _300  and  _301
REMARK  129  A    between atoms: _304  and  _306
REMARK  130  A    between atoms: _306  and  _307
REMARK  131  A    between atoms: _306  and  _309
REMARK  132  A    between atoms: _309  and  _310
REMARK  133  A    between atoms: _313  and  _315
REMARK  134  A    between atoms: _315  and  _316
REMARK  135  A    between atoms: _319  and  _321
REMARK  136  A    between atoms: _321  and  _322
REMARK  137  A    between atoms: _321  and  _324
REMARK  138  A    between atoms: _324  and  _325
REMARK  139  A    between atoms: _325  and  _448
REMARK  140  A    between atoms: _326  and  _328
REMARK  141  A    between atoms: _328  and  _329
REMARK  142  A    between atoms: _328  and  _331
REMARK  143  A    between atoms: _331  and  _332
REMARK  144  A    between atoms: _332  and  _333
REMARK  145  A    between atoms: _338  and  _340
REMARK  146  A    between atoms: _340  and  _341
REMARK  147  A    between atoms: _343  and  _345
REMARK  148  A    between atoms: _345  and  _346
REMARK  149  A    between atoms: _345  and  _348
REMARK  150  A    between atoms: _348  and  _349
REMARK  151  A    between atoms: _352  and  _354
REMARK  152  A    between atoms: _354  and  _355
REMARK  153  A    between atoms: _354  and  _357
REMARK  154  A    between atoms: _357  and  _358
REMARK  155  A    between atoms: _360  and  _362
REMARK  156  A    between atoms: _362  and  _363
REMARK  157  A    between atoms: _365  and  _367
REMARK  158  A    between atoms: _367  and  _368
REMARK  159  A    between atoms: _370  and  _372
REMARK  160  A    between atoms: _372  and  _373
REMARK  161  A    between atoms: _372  and  _375
REMARK  162  A    between atoms: _375  and  _376
REMARK  163  A    between atoms: _381  and  _383
REMARK  164  A    between atoms: _383  and  _384
REMARK  165  A    between atoms: _383  and  _386
REMARK  166  A    between atoms: _386  and  _387
REMARK  167  A    between atoms: _390  and  _392
REMARK  168  A    between atoms: _392  and  _393
REMARK  169  A    between atoms: _392  and  _395
REMARK  170  A    between atoms: _398  and  _400
REMARK  171  A    between atoms: _400  and  _401
REMARK  172  A    between atoms: _400  and  _403
REMARK  173  A    between atoms: _403  and  _404
REMARK  174  A    between atoms: _406  and  _408
REMARK  175  A    between atoms: _408  and  _409
REMARK  176  A    between atoms: _408  and  _411
REMARK  177  A    between atoms: _411  and  _412
REMARK  178  A    between atoms: _422  and  _424
REMARK  179  A    between atoms: _424  and  _425
REMARK  180  A    between atoms: _427  and  _429
REMARK  181  A    between atoms: _429  and  _430
REMARK  182  A    between atoms: _429  and  _432
REMARK  183  A    between atoms: _432  and  _433
REMARK  184  A    between atoms: _433  and  _434
REMARK  185  A    between atoms: _437  and  _439
REMARK  186  A    between atoms: _439  and  _440
REMARK  187  A    between atoms: _442  and  _444
REMARK  188  A    between atoms: _444  and  _445
REMARK  189  A    between atoms: _444  and  _447
REMARK  190  A    between atoms: _447  and  _448
REMARK  191  A    between atoms: _449  and  _451
REMARK  192  A    between atoms: _451  and  _452
REMARK  193  A    between atoms: _455  and  _457
REMARK  194  A    between atoms: _457  and  _458
REMARK  195  A    between atoms: _457  and  _460
REMARK  196  A    between atoms: _460  and  _461
REMARK  197  A    between atoms: _461  and  _462
REMARK  198  A    between atoms: _462  and  _463
REMARK  199  A    between atoms: _472  and  _474
REMARK  200  A    between atoms: _474  and  _475
REMARK  201  A    between atoms: _474  and  _477
REMARK  202  A    between atoms: _477  and  _478
REMARK  203  A    between atoms: _478  and  _479
REMARK  204  A    between atoms: _479  and  _480
REMARK  205  A    between atoms: _480  and  _481
REMARK  206  A    between atoms: _485  and  _487
REMARK  207  A    between atoms: _487  and  _488
REMARK  208  A    between atoms: _487  and  _490
REMARK  209  A    between atoms: _490  and  _491
REMARK  210  A    between atoms: _496  and  _497
REMARK  211  A    between atoms: _499  and  _501
REMARK  212  A    between atoms: _501  and  _502
REMARK  213  A    between atoms: _504  and  _506
REMARK  214  A    between atoms: _506  and  _507
REMARK  215  A    between atoms: _506  and  _509
REMARK  216  A    between atoms: _509  and  _510
REMARK  217  A    between atoms: _513  and  _515
REMARK  218  A    between atoms: _515  and  _516
REMARK  219  A    between atoms: _515  and  _518
REMARK  220  A    between atoms: _518  and  _519
REMARK  221  A    between atoms: _524  and  _525
REMARK  222  A    between atoms: _527  and  _529
REMARK  223  A    between atoms: _529  and  _530
REMARK  224  A    between atoms: _529  and  _532
REMARK  225  A    between atoms: _532  and  _533
REMARK                            x       y       z     vdW  Elec       q    Type
REMARK                         _______ _______ _______ _____ _____    ______ ____
ROOT
ATOM      1  O   HOH     1      15.539  13.310  27.561  0.00  0.00    +0.000 OA
ENDROOT
TORSDOF 0
REMARK  Name = ../refined-set-2016/2vvc/2vvc_pocket.pdb
REMARK  225 active torsions:
REMARK  status: ('A' for Active; 'I' for Inactive)
REMARK    1  A    between atoms: _1  and  _5
REMARK    2  A    between atoms: _5  and  _6
REMARK    3  A    between atoms: _5  and  _8
REMARK    4  A    between atoms: _8  and  _9
REMARK    5  A    between atoms: _12  and  _14
REMARK    6  A    between atoms: _14  and  _15
REMARK    7  A    between atoms: _14  and  _17
REMARK    8  A    between atoms: _20  and  _22
REMARK    9  A    between atoms: _22  and  _23
REMARK   10  A    between atoms: _22  and  _25
REMARK   11  A    between atoms: _25  and  _26
REMARK   12  A    between atoms: _31  and  _33
REMARK   13  A    between atoms: _33  and  _34
REMARK   14  A    between atoms: _33  and  _36
REMARK   15  A    between atoms: _36  and  _37
REMARK   16  A    between atoms: _37  and  _38
REMARK   17  A    between atoms: _43  and  _45
REMARK   18  A    between atoms: _45  and  _46
REMARK   19  A    between atoms: _45  and  _48
REMARK   20  A    between atoms: _48  and  _49
REMARK   21  A    between atoms: _55  and  _57
REMARK   22  A    between atoms: _57  and  _58
REMARK   23  A    between atoms: _57  and  _60
REMARK   24  A    between atoms: _60  and  _61
REMARK   25  A    between atoms: _64  and  _66
REMARK   26  A    between atoms: _66  and  _67
REMARK   27  A    between atoms: _66  and  _69
REMARK   28  A    between atoms: _69  and  _70
REMARK   29  A    between atoms: _70  and  _71
REMARK   30  A    between atoms: _71  and  _72
REMARK   31  A    between atoms: _72  and  _73
REMARK   32  A    between atoms: _77  and  _79
REMARK   33  A    between atoms: _79  and  _80
REMARK   34  A    between atoms: _79  and  _82
REMARK   35  A    between atoms: _82  and  _83
REMARK   36  A    between atoms: _83  and  _84
REMARK   37  A    between atoms: _87  and  _89
REMARK   38  A    between atoms: _89  and  _90
REMARK   39  A    between atoms: _89  and  _92
REMARK   40  A    between atoms: _92  and  _93
REMARK   41  A    between atoms: _96  and  _98
REMARK   42  A    between atoms: _98  and  _99
REMARK   43  A    between atoms: _98  and  _101
REMARK   44  A    between atoms: _101  and  _102
REMARK   45  A    between atoms: _107  and  _108
REMARK   46  A    between atoms: _110  and  _112
REMARK   47  A    between atoms: _112  and  _113
REMARK   48  A    between atoms: _112  and  _115
REMARK   49  A    between atoms: _115  and  _116
REMARK   50  A    between atoms: _119  and  _121
REMARK   51  A    between atoms: _121  and  _122
REMARK   52  A    between atoms: _121  and  _124
REMARK   53  A    between atoms: _124  and  _125
REMARK   54  A    between atoms: _128  and  _130
REMARK   55  A    between atoms: _130  and  _131
REMARK   56  A    between atoms: _130  and  _133
REMARK   57  A    between atoms: _136  and  _138
REMARK   58  A    between atoms: _138  and  _139
REMARK   59  A    between atoms: _138  and  _141
REMARK   60  A    between atoms: _141  and  _142
REMARK   61  A    between atoms: _142  and  _143
REMARK   62  A    between atoms: _143  and  _144
REMARK   63  A    between atoms: _153  and  _155
REMARK   64  A    between atoms: _155  and  _156
REMARK   65  A    between atoms: _155  and  _158
REMARK   66  A    between atoms: _158  and  _159
REMARK   67  A    between atoms: _164  and  _166
REMARK   68  A    between atoms: _166  and  _167
REMARK   69  A    between atoms: _166  and  _169
REMARK   70  A    between atoms: _169  and  _170
REMARK   71  A    between atoms: _170  and  _171
REMARK   72  A    between atoms: _174  and  _176
REMARK   73  A    between atoms: _176  and  _177
REMARK   74  A    between atoms: _176  and  _179
REMARK   75  A    between atoms: _179  and  _180
REMARK   76  A    between atoms: _180  and  _181
REMARK   77  A    between atoms: _181  and  _182
REMARK   78  A    between atoms: _182  and  _183
REMARK   79  A    between atoms: _187  and  _189
REMARK   80  A    between atoms: _189  and  _190
REMARK   81  A    between atoms: _192  and  _194
REMARK   82  A    between atoms: _194  and  _195
REMARK   83  A    between atoms: _194  and  _197
REMARK   84  A    between atoms: _200  and  _202
REMARK   85  A    between atoms: _202  and  _203
REMARK   86  A    between atoms: _202  and  _205
REMARK   87  A    between atoms: _205  and  _206
REMARK   88  A    between atoms: _208  and  _210
REMARK   89  A    between atoms: _210  and  _211
REMARK   90  A    between atoms: _210  and  _213
REMARK   91  A    between atoms: _213  and  _214
REMARK   92  A    between atoms: _216  and  _218
REMARK   93  A    between atoms: _218  and  _219
REMARK   94  A    between atoms: _218  and  _221
REMARK   95  A    between atoms: _221  and  _222
REMARK   96  A    between atoms: _228  and  _230
REMARK   97  A    between atoms: _230  and  _231
REMARK   98  A    between atoms: _230  and  _233
REMARK   99  A    between atoms: _233  and  _234
REMARK  100  A    between atoms: _237  and  _239
REMARK  101  A    between atoms: _239  and  _240
REMARK  102  A    between atoms: _239  and  _242
REMARK  103  A    between atoms: _242  and  _243
REMARK  104  A    between atoms: _246  and  _248
REMARK  105  A    between atoms: _248  and  _249
REMARK  106  A    between atoms: _248  and  _251
REMARK  107  A    between atoms: _251  and  _252
REMARK  108  A    between atoms: _255  and  _257
REMARK  109  A    between atoms: _257  and  _258
REMARK  110  A    between atoms: _257  and  _260
REMARK  111  A    between atoms: _260  and  _261
REMARK  112  A    between atoms: _261  and  _262
REMARK  113  A    between atoms: _264  and  _266
REMARK  114  A    between atoms: _266  and  _267
REMARK  115  A    between atoms: _266  and  _269
REMARK  116  A    between atoms: _269  and  _270
REMARK  117  A    between atoms: _276  and  _278
REMARK  118  A    between atoms: _278  and  _279
REMARK  119  A    between atoms: _278  and  _281
REMARK  120  A    between atoms: _283  and  _285
REMARK  121  A    between atoms: _285  and  _286
REMARK  122  A    between atoms: _289  and  _291
REMARK  123  A    between atoms: _291  and  _292
REMARK  124  A    between atoms: _294  and  _296
REMARK  125  A    between atoms: _296  and  _297
REMARK  126  A    between atoms: _296  and  _299
REMARK  127  A    between atoms: _299  and  _300
REMARK  128  A    between atoms: _300  and  _301
REMARK  129  A    between atoms: _304  and  _306
REMARK  130  A    between atoms: _306  and  _307
REMARK  131  A    between atoms: _306  and  _309
REMARK  132  A    between atoms: _309  and  _310
REMARK  133  A    between atoms: _313  and  _315
REMARK  134  A    between atoms: _315  and  _316
REMARK  135  A    between atoms: _319  and  _321
REMARK  136  A    between atoms: _321  and  _322
REMARK  137  A    between atoms: _321  and  _324
REMARK  138  A    between atoms: _324  and  _325
REMARK  139  A    between atoms: _325  and  _448
REMARK  140  A    between atoms: _326  and  _328
REMARK  141  A    between atoms: _328  and  _329
REMARK  142  A    between atoms: _328  and  _331
REMARK  143  A    between atoms: _331  and  _332
REMARK  144  A    between atoms: _332  and  _333
REMARK  145  A    between atoms: _338  and  _340
REMARK  146  A    between atoms: _340  and  _341
REMARK  147  A    between atoms: _343  and  _345
REMARK  148  A    between atoms: _345  and  _346
REMARK  149  A    between atoms: _345  and  _348
REMARK  150  A    between atoms: _348  and  _349
REMARK  151  A    between atoms: _352  and  _354
REMARK  152  A    between atoms: _354  and  _355
REMARK  153  A    between atoms: _354  and  _357
REMARK  154  A    between atoms: _357  and  _358
REMARK  155  A    between atoms: _360  and  _362
REMARK  156  A    between atoms: _362  and  _363
REMARK  157  A    between atoms: _365  and  _367
REMARK  158  A    between atoms: _367  and  _368
REMARK  159  A    between atoms: _370  and  _372
REMARK  160  A    between atoms: _372  and  _373
REMARK  161  A    between atoms: _372  and  _375
REMARK  162  A    between atoms: _375  and  _376
REMARK  163  A    between atoms: _381  and  _383
REMARK  164  A    between atoms: _383  and  _384
REMARK  165  A    between atoms: _383  and  _386
REMARK  166  A    between atoms: _386  and  _387
REMARK  167  A    between atoms: _390  and  _392
REMARK  168  A    between atoms: _392  and  _393
REMARK  169  A    between atoms: _392  and  _395
REMARK  170  A    between atoms: _398  and  _400
REMARK  171  A    between atoms: _400  and  _401
REMARK  172  A    between atoms: _400  and  _403
REMARK  173  A    between atoms: _403  and  _404
REMARK  174  A    between atoms: _406  and  _408
REMARK  175  A    between atoms: _408  and  _409
REMARK  176  A    between atoms: _408  and  _411
REMARK  177  A    between atoms: _411  and  _412
REMARK  178  A    between atoms: _422  and  _424
REMARK  179  A    between atoms: _424  and  _425
REMARK  180  A    between atoms: _427  and  _429
REMARK  181  A    between atoms: _429  and  _430
REMARK  182  A    between atoms: _429  and  _432
REMARK  183  A    between atoms: _432  and  _433
REMARK  184  A    between atoms: _433  and  _434
REMARK  185  A    between atoms: _437  and  _439
REMARK  186  A    between atoms: _439  and  _440
REMARK  187  A    between atoms: _442  and  _444
REMARK  188  A    between atoms: _444  and  _445
REMARK  189  A    between atoms: _444  and  _447
REMARK  190  A    between atoms: _447  and  _448
REMARK  191  A    between atoms: _449  and  _451
REMARK  192  A    between atoms: _451  and  _452
REMARK  193  A    between atoms: _455  and  _457
REMARK  194  A    between atoms: _457  and  _458
REMARK  195  A    between atoms: _457  and  _460
REMARK  196  A    between atoms: _460  and  _461
REMARK  197  A    between atoms: _461  and  _462
REMARK  198  A    between atoms: _462  and  _463
REMARK  199  A    between atoms: _472  and  _474
REMARK  200  A    between atoms: _474  and  _475
REMARK  201  A    between atoms: _474  and  _477
REMARK  202  A    between atoms: _477  and  _478
REMARK  203  A    between atoms: _478  and  _479
REMARK  204  A    between atoms: _479  and  _480
REMARK  205  A    between atoms: _480  and  _481
REMARK  206  A    between atoms: _485  and  _487
REMARK  207  A    between atoms: _487  and  _488
REMARK  208  A    between atoms: _487  and  _490
REMARK  209  A    between atoms: _490  and  _491
REMARK  210  A    between atoms: _496  and  _497
REMARK  211  A    between atoms: _499  and  _501
REMARK  212  A    between atoms: _501  and  _502
REMARK  213  A    between atoms: _504  and  _506
REMARK  214  A    between atoms: _506  and  _507
REMARK  215  A    between atoms: _506  and  _509
REMARK  216  A    between atoms: _509  and  _510
REMARK  217  A    between atoms: _513  and  _515
REMARK  218  A    between atoms: _515  and  _516
REMARK  219  A    between atoms: _515  and  _518
REMARK  220  A    between atoms: _518  and  _519
REMARK  221  A    between atoms: _524  and  _525
REMARK  222  A    between atoms: _527  and  _529
REMARK  223  A    between atoms: _529  and  _530
REMARK  224  A    between atoms: _529  and  _532
REMARK  225  A    between atoms: _532  and  _533
REMARK                            x       y       z     vdW  Elec       q    Type
REMARK                         _______ _______ _______ _____ _____    ______ ____
ROOT
ATOM      1  O   HOH     1      12.720  12.451  24.974  0.00  0.00    +0.000 OA
ENDROOT
TORSDOF 0
REMARK  Name = ../refined-set-2016/2vvc/2vvc_pocket.pdb
REMARK  225 active torsions:
REMARK  status: ('A' for Active; 'I' for Inactive)
REMARK    1  A    between atoms: _1  and  _5
REMARK    2  A    between atoms: _5  and  _6
REMARK    3  A    between atoms: _5  and  _8
REMARK    4  A    between atoms: _8  and  _9
REMARK    5  A    between atoms: _12  and  _14
REMARK    6  A    between atoms: _14  and  _15
REMARK    7  A    between atoms: _14  and  _17
REMARK    8  A    between atoms: _20  and  _22
REMARK    9  A    between atoms: _22  and  _23
REMARK   10  A    between atoms: _22  and  _25
REMARK   11  A    between atoms: _25  and  _26
REMARK   12  A    between atoms: _31  and  _33
REMARK   13  A    between atoms: _33  and  _34
REMARK   14  A    between atoms: _33  and  _36
REMARK   15  A    between atoms: _36  and  _37
REMARK   16  A    between atoms: _37  and  _38
REMARK   17  A    between atoms: _43  and  _45
REMARK   18  A    between atoms: _45  and  _46
REMARK   19  A    between atoms: _45  and  _48
REMARK   20  A    between atoms: _48  and  _49
REMARK   21  A    between atoms: _55  and  _57
REMARK   22  A    between atoms: _57  and  _58
REMARK   23  A    between atoms: _57  and  _60
REMARK   24  A    between atoms: _60  and  _61
REMARK   25  A    between atoms: _64  and  _66
REMARK   26  A    between atoms: _66  and  _67
REMARK   27  A    between atoms: _66  and  _69
REMARK   28  A    between atoms: _69  and  _70
REMARK   29  A    between atoms: _70  and  _71
REMARK   30  A    between atoms: _71  and  _72
REMARK   31  A    between atoms: _72  and  _73
REMARK   32  A    between atoms: _77  and  _79
REMARK   33  A    between atoms: _79  and  _80
REMARK   34  A    between atoms: _79  and  _82
REMARK   35  A    between atoms: _82  and  _83
REMARK   36  A    between atoms: _83  and  _84
REMARK   37  A    between atoms: _87  and  _89
REMARK   38  A    between atoms: _89  and  _90
REMARK   39  A    between atoms: _89  and  _92
REMARK   40  A    between atoms: _92  and  _93
REMARK   41  A    between atoms: _96  and  _98
REMARK   42  A    between atoms: _98  and  _99
REMARK   43  A    between atoms: _98  and  _101
REMARK   44  A    between atoms: _101  and  _102
REMARK   45  A    between atoms: _107  and  _108
REMARK   46  A    between atoms: _110  and  _112
REMARK   47  A    between atoms: _112  and  _113
REMARK   48  A    between atoms: _112  and  _115
REMARK   49  A    between atoms: _115  and  _116
REMARK   50  A    between atoms: _119  and  _121
REMARK   51  A    between atoms: _121  and  _122
REMARK   52  A    between atoms: _121  and  _124
REMARK   53  A    between atoms: _124  and  _125
REMARK   54  A    between atoms: _128  and  _130
REMARK   55  A    between atoms: _130  and  _131
REMARK   56  A    between atoms: _130  and  _133
REMARK   57  A    between atoms: _136  and  _138
REMARK   58  A    between atoms: _138  and  _139
REMARK   59  A    between atoms: _138  and  _141
REMARK   60  A    between atoms: _141  and  _142
REMARK   61  A    between atoms: _142  and  _143
REMARK   62  A    between atoms: _143  and  _144
REMARK   63  A    between atoms: _153  and  _155
REMARK   64  A    between atoms: _155  and  _156
REMARK   65  A    between atoms: _155  and  _158
REMARK   66  A    between atoms: _158  and  _159
REMARK   67  A    between atoms: _164  and  _166
REMARK   68  A    between atoms: _166  and  _167
REMARK   69  A    between atoms: _166  and  _169
REMARK   70  A    between atoms: _169  and  _170
REMARK   71  A    between atoms: _170  and  _171
REMARK   72  A    between atoms: _174  and  _176
REMARK   73  A    between atoms: _176  and  _177
REMARK   74  A    between atoms: _176  and  _179
REMARK   75  A    between atoms: _179  and  _180
REMARK   76  A    between atoms: _180  and  _181
REMARK   77  A    between atoms: _181  and  _182
REMARK   78  A    between atoms: _182  and  _183
REMARK   79  A    between atoms: _187  and  _189
REMARK   80  A    between atoms: _189  and  _190
REMARK   81  A    between atoms: _192  and  _194
REMARK   82  A    between atoms: _194  and  _195
REMARK   83  A    between atoms: _194  and  _197
REMARK   84  A    between atoms: _200  and  _202
REMARK   85  A    between atoms: _202  and  _203
REMARK   86  A    between atoms: _202  and  _205
REMARK   87  A    between atoms: _205  and  _206
REMARK   88  A    between atoms: _208  and  _210
REMARK   89  A    between atoms: _210  and  _211
REMARK   90  A    between atoms: _210  and  _213
REMARK   91  A    between atoms: _213  and  _214
REMARK   92  A    between atoms: _216  and  _218
REMARK   93  A    between atoms: _218  and  _219
REMARK   94  A    between atoms: _218  and  _221
REMARK   95  A    between atoms: _221  and  _222
REMARK   96  A    between atoms: _228  and  _230
REMARK   97  A    between atoms: _230  and  _231
REMARK   98  A    between atoms: _230  and  _233
REMARK   99  A    between atoms: _233  and  _234
REMARK  100  A    between atoms: _237  and  _239
REMARK  101  A    between atoms: _239  and  _240
REMARK  102  A    between atoms: _239  and  _242
REMARK  103  A    between atoms: _242  and  _243
REMARK  104  A    between atoms: _246  and  _248
REMARK  105  A    between atoms: _248  and  _249
REMARK  106  A    between atoms: _248  and  _251
REMARK  107  A    between atoms: _251  and  _252
REMARK  108  A    between atoms: _255  and  _257
REMARK  109  A    between atoms: _257  and  _258
REMARK  110  A    between atoms: _257  and  _260
REMARK  111  A    between atoms: _260  and  _261
REMARK  112  A    between atoms: _261  and  _262
REMARK  113  A    between atoms: _264  and  _266
REMARK  114  A    between atoms: _266  and  _267
REMARK  115  A    between atoms: _266  and  _269
REMARK  116  A    between atoms: _269  and  _270
REMARK  117  A    between atoms: _276  and  _278
REMARK  118  A    between atoms: _278  and  _279
REMARK  119  A    between atoms: _278  and  _281
REMARK  120  A    between atoms: _283  and  _285
REMARK  121  A    between atoms: _285  and  _286
REMARK  122  A    between atoms: _289  and  _291
REMARK  123  A    between atoms: _291  and  _292
REMARK  124  A    between atoms: _294  and  _296
REMARK  125  A    between atoms: _296  and  _297
REMARK  126  A    between atoms: _296  and  _299
REMARK  127  A    between atoms: _299  and  _300
REMARK  128  A    between atoms: _300  and  _301
REMARK  129  A    between atoms: _304  and  _306
REMARK  130  A    between atoms: _306  and  _307
REMARK  131  A    between atoms: _306  and  _309
REMARK  132  A    between atoms: _309  and  _310
REMARK  133  A    between atoms: _313  and  _315
REMARK  134  A    between atoms: _315  and  _316
REMARK  135  A    between atoms: _319  and  _321
REMARK  136  A    between atoms: _321  and  _322
REMARK  137  A    between atoms: _321  and  _324
REMARK  138  A    between atoms: _324  and  _325
REMARK  139  A    between atoms: _325  and  _448
REMARK  140  A    between atoms: _326  and  _328
REMARK  141  A    between atoms: _328  and  _329
REMARK  142  A    between atoms: _328  and  _331
REMARK  143  A    between atoms: _331  and  _332
REMARK  144  A    between atoms: _332  and  _333
REMARK  145  A    between atoms: _338  and  _340
REMARK  146  A    between atoms: _340  and  _341
REMARK  147  A    between atoms: _343  and  _345
REMARK  148  A    between atoms: _345  and  _346
REMARK  149  A    between atoms: _345  and  _348
REMARK  150  A    between atoms: _348  and  _349
REMARK  151  A    between atoms: _352  and  _354
REMARK  152  A    between atoms: _354  and  _355
REMARK  153  A    between atoms: _354  and  _357
REMARK  154  A    between atoms: _357  and  _358
REMARK  155  A    between atoms: _360  and  _362
REMARK  156  A    between atoms: _362  and  _363
REMARK  157  A    between atoms: _365  and  _367
REMARK  158  A    between atoms: _367  and  _368
REMARK  159  A    between atoms: _370  and  _372
REMARK  160  A    between atoms: _372  and  _373
REMARK  161  A    between atoms: _372  and  _375
REMARK  162  A    between atoms: _375  and  _376
REMARK  163  A    between atoms: _381  and  _383
REMARK  164  A    between atoms: _383  and  _384
REMARK  165  A    between atoms: _383  and  _386
REMARK  166  A    between atoms: _386  and  _387
REMARK  167  A    between atoms: _390  and  _392
REMARK  168  A    between atoms: _392  and  _393
REMARK  169  A    between atoms: _392  and  _395
REMARK  170  A    between atoms: _398  and  _400
REMARK  171  A    between atoms: _400  and  _401
REMARK  172  A    between atoms: _400  and  _403
REMARK  173  A    between atoms: _403  and  _404
REMARK  174  A    between atoms: _406  and  _408
REMARK  175  A    between atoms: _408  and  _409
REMARK  176  A    between atoms: _408  and  _411
REMARK  177  A    between atoms: _411  and  _412
REMARK  178  A    between atoms: _422  and  _424
REMARK  179  A    between atoms: _424  and  _425
REMARK  180  A    between atoms: _427  and  _429
REMARK  181  A    between atoms: _429  and  _430
REMARK  182  A    between atoms: _429  and  _432
REMARK  183  A    between atoms: _432  and  _433
REMARK  184  A    between atoms: _433  and  _434
REMARK  185  A    between atoms: _437  and  _439
REMARK  186  A    between atoms: _439  and  _440
REMARK  187  A    between atoms: _442  and  _444
REMARK  188  A    between atoms: _444  and  _445
REMARK  189  A    between atoms: _444  and  _447
REMARK  190  A    between atoms: _447  and  _448
REMARK  191  A    between atoms: _449  and  _451
REMARK  192  A    between atoms: _451  and  _452
REMARK  193  A    between atoms: _455  and  _457
REMARK  194  A    between atoms: _457  and  _458
REMARK  195  A    between atoms: _457  and  _460
REMARK  196  A    between atoms: _460  and  _461
REMARK  197  A    between atoms: _461  and  _462
REMARK  198  A    between atoms: _462  and  _463
REMARK  199  A    between atoms: _472  and  _474
REMARK  200  A    between atoms: _474  and  _475
REMARK  201  A    between atoms: _474  and  _477
REMARK  202  A    between atoms: _477  and  _478
REMARK  203  A    between atoms: _478  and  _479
REMARK  204  A    between atoms: _479  and  _480
REMARK  205  A    between atoms: _480  and  _481
REMARK  206  A    between atoms: _485  and  _487
REMARK  207  A    between atoms: _487  and  _488
REMARK  208  A    between atoms: _487  and  _490
REMARK  209  A    between atoms: _490  and  _491
REMARK  210  A    between atoms: _496  and  _497
REMARK  211  A    between atoms: _499  and  _501
REMARK  212  A    between atoms: _501  and  _502
REMARK  213  A    between atoms: _504  and  _506
REMARK  214  A    between atoms: _506  and  _507
REMARK  215  A    between atoms: _506  and  _509
REMARK  216  A    between atoms: _509  and  _510
REMARK  217  A    between atoms: _513  and  _515
REMARK  218  A    between atoms: _515  and  _516
REMARK  219  A    between atoms: _515  and  _518
REMARK  220  A    between atoms: _518  and  _519
REMARK  221  A    between atoms: _524  and  _525
REMARK  222  A    between atoms: _527  and  _529
REMARK  223  A    between atoms: _529  and  _530
REMARK  224  A    between atoms: _529  and  _532
REMARK  225  A    between atoms: _532  and  _533
REMARK                            x       y       z     vdW  Elec       q    Type
REMARK                         _______ _______ _______ _____ _____    ______ ____
ROOT
ATOM      1  O   HOH     1      11.281   7.740  36.232  0.00  0.00    +0.000 OA
ENDROOT
TORSDOF 0
REMARK  Name = ../refined-set-2016/2vvc/2vvc_pocket.pdb
REMARK  225 active torsions:
REMARK  status: ('A' for Active; 'I' for Inactive)
REMARK    1  A    between atoms: _1  and  _5
REMARK    2  A    between atoms: _5  and  _6
REMARK    3  A    between atoms: _5  and  _8
REMARK    4  A    between atoms: _8  and  _9
REMARK    5  A    between atoms: _12  and  _14
REMARK    6  A    between atoms: _14  and  _15
REMARK    7  A    between atoms: _14  and  _17
REMARK    8  A    between atoms: _20  and  _22
REMARK    9  A    between atoms: _22  and  _23
REMARK   10  A    between atoms: _22  and  _25
REMARK   11  A    between atoms: _25  and  _26
REMARK   12  A    between atoms: _31  and  _33
REMARK   13  A    between atoms: _33  and  _34
REMARK   14  A    between atoms: _33  and  _36
REMARK   15  A    between atoms: _36  and  _37
REMARK   16  A    between atoms: _37  and  _38
REMARK   17  A    between atoms: _43  and  _45
REMARK   18  A    between atoms: _45  and  _46
REMARK   19  A    between atoms: _45  and  _48
REMARK   20  A    between atoms: _48  and  _49
REMARK   21  A    between atoms: _55  and  _57
REMARK   22  A    between atoms: _57  and  _58
REMARK   23  A    between atoms: _57  and  _60
REMARK   24  A    between atoms: _60  and  _61
REMARK   25  A    between atoms: _64  and  _66
REMARK   26  A    between atoms: _66  and  _67
REMARK   27  A    between atoms: _66  and  _69
REMARK   28  A    between atoms: _69  and  _70
REMARK   29  A    between atoms: _70  and  _71
REMARK   30  A    between atoms: _71  and  _72
REMARK   31  A    between atoms: _72  and  _73
REMARK   32  A    between atoms: _77  and  _79
REMARK   33  A    between atoms: _79  and  _80
REMARK   34  A    between atoms: _79  and  _82
REMARK   35  A    between atoms: _82  and  _83
REMARK   36  A    between atoms: _83  and  _84
REMARK   37  A    between atoms: _87  and  _89
REMARK   38  A    between atoms: _89  and  _90
REMARK   39  A    between atoms: _89  and  _92
REMARK   40  A    between atoms: _92  and  _93
REMARK   41  A    between atoms: _96  and  _98
REMARK   42  A    between atoms: _98  and  _99
REMARK   43  A    between atoms: _98  and  _101
REMARK   44  A    between atoms: _101  and  _102
REMARK   45  A    between atoms: _107  and  _108
REMARK   46  A    between atoms: _110  and  _112
REMARK   47  A    between atoms: _112  and  _113
REMARK   48  A    between atoms: _112  and  _115
REMARK   49  A    between atoms: _115  and  _116
REMARK   50  A    between atoms: _119  and  _121
REMARK   51  A    between atoms: _121  and  _122
REMARK   52  A    between atoms: _121  and  _124
REMARK   53  A    between atoms: _124  and  _125
REMARK   54  A    between atoms: _128  and  _130
REMARK   55  A    between atoms: _130  and  _131
REMARK   56  A    between atoms: _130  and  _133
REMARK   57  A    between atoms: _136  and  _138
REMARK   58  A    between atoms: _138  and  _139
REMARK   59  A    between atoms: _138  and  _141
REMARK   60  A    between atoms: _141  and  _142
REMARK   61  A    between atoms: _142  and  _143
REMARK   62  A    between atoms: _143  and  _144
REMARK   63  A    between atoms: _153  and  _155
REMARK   64  A    between atoms: _155  and  _156
REMARK   65  A    between atoms: _155  and  _158
REMARK   66  A    between atoms: _158  and  _159
REMARK   67  A    between atoms: _164  and  _166
REMARK   68  A    between atoms: _166  and  _167
REMARK   69  A    between atoms: _166  and  _169
REMARK   70  A    between atoms: _169  and  _170
REMARK   71  A    between atoms: _170  and  _171
REMARK   72  A    between atoms: _174  and  _176
REMARK   73  A    between atoms: _176  and  _177
REMARK   74  A    between atoms: _176  and  _179
REMARK   75  A    between atoms: _179  and  _180
REMARK   76  A    between atoms: _180  and  _181
REMARK   77  A    between atoms: _181  and  _182
REMARK   78  A    between atoms: _182  and  _183
REMARK   79  A    between atoms: _187  and  _189
REMARK   80  A    between atoms: _189  and  _190
REMARK   81  A    between atoms: _192  and  _194
REMARK   82  A    between atoms: _194  and  _195
REMARK   83  A    between atoms: _194  and  _197
REMARK   84  A    between atoms: _200  and  _202
REMARK   85  A    between atoms: _202  and  _203
REMARK   86  A    between atoms: _202  and  _205
REMARK   87  A    between atoms: _205  and  _206
REMARK   88  A    between atoms: _208  and  _210
REMARK   89  A    between atoms: _210  and  _211
REMARK   90  A    between atoms: _210  and  _213
REMARK   91  A    between atoms: _213  and  _214
REMARK   92  A    between atoms: _216  and  _218
REMARK   93  A    between atoms: _218  and  _219
REMARK   94  A    between atoms: _218  and  _221
REMARK   95  A    between atoms: _221  and  _222
REMARK   96  A    between atoms: _228  and  _230
REMARK   97  A    between atoms: _230  and  _231
REMARK   98  A    between atoms: _230  and  _233
REMARK   99  A    between atoms: _233  and  _234
REMARK  100  A    between atoms: _237  and  _239
REMARK  101  A    between atoms: _239  and  _240
REMARK  102  A    between atoms: _239  and  _242
REMARK  103  A    between atoms: _242  and  _243
REMARK  104  A    between atoms: _246  and  _248
REMARK  105  A    between atoms: _248  and  _249
REMARK  106  A    between atoms: _248  and  _251
REMARK  107  A    between atoms: _251  and  _252
REMARK  108  A    between atoms: _255  and  _257
REMARK  109  A    between atoms: _257  and  _258
REMARK  110  A    between atoms: _257  and  _260
REMARK  111  A    between atoms: _260  and  _261
REMARK  112  A    between atoms: _261  and  _262
REMARK  113  A    between atoms: _264  and  _266
REMARK  114  A    between atoms: _266  and  _267
REMARK  115  A    between atoms: _266  and  _269
REMARK  116  A    between atoms: _269  and  _270
REMARK  117  A    between atoms: _276  and  _278
REMARK  118  A    between atoms: _278  and  _279
REMARK  119  A    between atoms: _278  and  _281
REMARK  120  A    between atoms: _283  and  _285
REMARK  121  A    between atoms: _285  and  _286
REMARK  122  A    between atoms: _289  and  _291
REMARK  123  A    between atoms: _291  and  _292
REMARK  124  A    between atoms: _294  and  _296
REMARK  125  A    between atoms: _296  and  _297
REMARK  126  A    between atoms: _296  and  _299
REMARK  127  A    between atoms: _299  and  _300
REMARK  128  A    between atoms: _300  and  _301
REMARK  129  A    between atoms: _304  and  _306
REMARK  130  A    between atoms: _306  and  _307
REMARK  131  A    between atoms: _306  and  _309
REMARK  132  A    between atoms: _309  and  _310
REMARK  133  A    between atoms: _313  and  _315
REMARK  134  A    between atoms: _315  and  _316
REMARK  135  A    between atoms: _319  and  _321
REMARK  136  A    between atoms: _321  and  _322
REMARK  137  A    between atoms: _321  and  _324
REMARK  138  A    between atoms: _324  and  _325
REMARK  139  A    between atoms: _325  and  _448
REMARK  140  A    between atoms: _326  and  _328
REMARK  141  A    between atoms: _328  and  _329
REMARK  142  A    between atoms: _328  and  _331
REMARK  143  A    between atoms: _331  and  _332
REMARK  144  A    between atoms: _332  and  _333
REMARK  145  A    between atoms: _338  and  _340
REMARK  146  A    between atoms: _340  and  _341
REMARK  147  A    between atoms: _343  and  _345
REMARK  148  A    between atoms: _345  and  _346
REMARK  149  A    between atoms: _345  and  _348
REMARK  150  A    between atoms: _348  and  _349
REMARK  151  A    between atoms: _352  and  _354
REMARK  152  A    between atoms: _354  and  _355
REMARK  153  A    between atoms: _354  and  _357
REMARK  154  A    between atoms: _357  and  _358
REMARK  155  A    between atoms: _360  and  _362
REMARK  156  A    between atoms: _362  and  _363
REMARK  157  A    between atoms: _365  and  _367
REMARK  158  A    between atoms: _367  and  _368
REMARK  159  A    between atoms: _370  and  _372
REMARK  160  A    between atoms: _372  and  _373
REMARK  161  A    between atoms: _372  and  _375
REMARK  162  A    between atoms: _375  and  _376
REMARK  163  A    between atoms: _381  and  _383
REMARK  164  A    between atoms: _383  and  _384
REMARK  165  A    between atoms: _383  and  _386
REMARK  166  A    between atoms: _386  and  _387
REMARK  167  A    between atoms: _390  and  _392
REMARK  168  A    between atoms: _392  and  _393
REMARK  169  A    between atoms: _392  and  _395
REMARK  170  A    between atoms: _398  and  _400
REMARK  171  A    between atoms: _400  and  _401
REMARK  172  A    between atoms: _400  and  _403
REMARK  173  A    between atoms: _403  and  _404
REMARK  174  A    between atoms: _406  and  _408
REMARK  175  A    between atoms: _408  and  _409
REMARK  176  A    between atoms: _408  and  _411
REMARK  177  A    between atoms: _411  and  _412
REMARK  178  A    between atoms: _422  and  _424
REMARK  179  A    between atoms: _424  and  _425
REMARK  180  A    between atoms: _427  and  _429
REMARK  181  A    between atoms: _429  and  _430
REMARK  182  A    between atoms: _429  and  _432
REMARK  183  A    between atoms: _432  and  _433
REMARK  184  A    between atoms: _433  and  _434
REMARK  185  A    between atoms: _437  and  _439
REMARK  186  A    between atoms: _439  and  _440
REMARK  187  A    between atoms: _442  and  _444
REMARK  188  A    between atoms: _444  and  _445
REMARK  189  A    between atoms: _444  and  _447
REMARK  190  A    between atoms: _447  and  _448
REMARK  191  A    between atoms: _449  and  _451
REMARK  192  A    between atoms: _451  and  _452
REMARK  193  A    between atoms: _455  and  _457
REMARK  194  A    between atoms: _457  and  _458
REMARK  195  A    between atoms: _457  and  _460
REMARK  196  A    between atoms: _460  and  _461
REMARK  197  A    between atoms: _461  and  _462
REMARK  198  A    between atoms: _462  and  _463
REMARK  199  A    between atoms: _472  and  _474
REMARK  200  A    between atoms: _474  and  _475
REMARK  201  A    between atoms: _474  and  _477
REMARK  202  A    between atoms: _477  and  _478
REMARK  203  A    between atoms: _478  and  _479
REMARK  204  A    between atoms: _479  and  _480
REMARK  205  A    between atoms: _480  and  _481
REMARK  206  A    between atoms: _485  and  _487
REMARK  207  A    between atoms: _487  and  _488
REMARK  208  A    between atoms: _487  and  _490
REMARK  209  A    between atoms: _490  and  _491
REMARK  210  A    between atoms: _496  and  _497
REMARK  211  A    between atoms: _499  and  _501
REMARK  212  A    between atoms: _501  and  _502
REMARK  213  A    between atoms: _504  and  _506
REMARK  214  A    between atoms: _506  and  _507
REMARK  215  A    between atoms: _506  and  _509
REMARK  216  A    between atoms: _509  and  _510
REMARK  217  A    between atoms: _513  and  _515
REMARK  218  A    between atoms: _515  and  _516
REMARK  219  A    between atoms: _515  and  _518
REMARK  220  A    between atoms: _518  and  _519
REMARK  221  A    between atoms: _524  and  _525
REMARK  222  A    between atoms: _527  and  _529
REMARK  223  A    between atoms: _529  and  _530
REMARK  224  A    between atoms: _529  and  _532
REMARK  225  A    between atoms: _532  and  _533
REMARK                            x       y       z     vdW  Elec       q    Type
REMARK                         _______ _______ _______ _____ _____    ______ ____
ROOT
ATOM      1  O   HOH     1      11.745   8.067  26.617  0.00  0.00    +0.000 OA
ENDROOT
TORSDOF 0
REMARK  Name = ../refined-set-2016/2vvc/2vvc_pocket.pdb
REMARK  225 active torsions:
REMARK  status: ('A' for Active; 'I' for Inactive)
REMARK    1  A    between atoms: _1  and  _5
REMARK    2  A    between atoms: _5  and  _6
REMARK    3  A    between atoms: _5  and  _8
REMARK    4  A    between atoms: _8  and  _9
REMARK    5  A    between atoms: _12  and  _14
REMARK    6  A    between atoms: _14  and  _15
REMARK    7  A    between atoms: _14  and  _17
REMARK    8  A    between atoms: _20  and  _22
REMARK    9  A    between atoms: _22  and  _23
REMARK   10  A    between atoms: _22  and  _25
REMARK   11  A    between atoms: _25  and  _26
REMARK   12  A    between atoms: _31  and  _33
REMARK   13  A    between atoms: _33  and  _34
REMARK   14  A    between atoms: _33  and  _36
REMARK   15  A    between atoms: _36  and  _37
REMARK   16  A    between atoms: _37  and  _38
REMARK   17  A    between atoms: _43  and  _45
REMARK   18  A    between atoms: _45  and  _46
REMARK   19  A    between atoms: _45  and  _48
REMARK   20  A    between atoms: _48  and  _49
REMARK   21  A    between atoms: _55  and  _57
REMARK   22  A    between atoms: _57  and  _58
REMARK   23  A    between atoms: _57  and  _60
REMARK   24  A    between atoms: _60  and  _61
REMARK   25  A    between atoms: _64  and  _66
REMARK   26  A    between atoms: _66  and  _67
REMARK   27  A    between atoms: _66  and  _69
REMARK   28  A    between atoms: _69  and  _70
REMARK   29  A    between atoms: _70  and  _71
REMARK   30  A    between atoms: _71  and  _72
REMARK   31  A    between atoms: _72  and  _73
REMARK   32  A    between atoms: _77  and  _79
REMARK   33  A    between atoms: _79  and  _80
REMARK   34  A    between atoms: _79  and  _82
REMARK   35  A    between atoms: _82  and  _83
REMARK   36  A    between atoms: _83  and  _84
REMARK   37  A    between atoms: _87  and  _89
REMARK   38  A    between atoms: _89  and  _90
REMARK   39  A    between atoms: _89  and  _92
REMARK   40  A    between atoms: _92  and  _93
REMARK   41  A    between atoms: _96  and  _98
REMARK   42  A    between atoms: _98  and  _99
REMARK   43  A    between atoms: _98  and  _101
REMARK   44  A    between atoms: _101  and  _102
REMARK   45  A    between atoms: _107  and  _108
REMARK   46  A    between atoms: _110  and  _112
REMARK   47  A    between atoms: _112  and  _113
REMARK   48  A    between atoms: _112  and  _115
REMARK   49  A    between atoms: _115  and  _116
REMARK   50  A    between atoms: _119  and  _121
REMARK   51  A    between atoms: _121  and  _122
REMARK   52  A    between atoms: _121  and  _124
REMARK   53  A    between atoms: _124  and  _125
REMARK   54  A    between atoms: _128  and  _130
REMARK   55  A    between atoms: _130  and  _131
REMARK   56  A    between atoms: _130  and  _133
REMARK   57  A    between atoms: _136  and  _138
REMARK   58  A    between atoms: _138  and  _139
REMARK   59  A    between atoms: _138  and  _141
REMARK   60  A    between atoms: _141  and  _142
REMARK   61  A    between atoms: _142  and  _143
REMARK   62  A    between atoms: _143  and  _144
REMARK   63  A    between atoms: _153  and  _155
REMARK   64  A    between atoms: _155  and  _156
REMARK   65  A    between atoms: _155  and  _158
REMARK   66  A    between atoms: _158  and  _159
REMARK   67  A    between atoms: _164  and  _166
REMARK   68  A    between atoms: _166  and  _167
REMARK   69  A    between atoms: _166  and  _169
REMARK   70  A    between atoms: _169  and  _170
REMARK   71  A    between atoms: _170  and  _171
REMARK   72  A    between atoms: _174  and  _176
REMARK   73  A    between atoms: _176  and  _177
REMARK   74  A    between atoms: _176  and  _179
REMARK   75  A    between atoms: _179  and  _180
REMARK   76  A    between atoms: _180  and  _181
REMARK   77  A    between atoms: _181  and  _182
REMARK   78  A    between atoms: _182  and  _183
REMARK   79  A    between atoms: _187  and  _189
REMARK   80  A    between atoms: _189  and  _190
REMARK   81  A    between atoms: _192  and  _194
REMARK   82  A    between atoms: _194  and  _195
REMARK   83  A    between atoms: _194  and  _197
REMARK   84  A    between atoms: _200  and  _202
REMARK   85  A    between atoms: _202  and  _203
REMARK   86  A    between atoms: _202  and  _205
REMARK   87  A    between atoms: _205  and  _206
REMARK   88  A    between atoms: _208  and  _210
REMARK   89  A    between atoms: _210  and  _211
REMARK   90  A    between atoms: _210  and  _213
REMARK   91  A    between atoms: _213  and  _214
REMARK   92  A    between atoms: _216  and  _218
REMARK   93  A    between atoms: _218  and  _219
REMARK   94  A    between atoms: _218  and  _221
REMARK   95  A    between atoms: _221  and  _222
REMARK   96  A    between atoms: _228  and  _230
REMARK   97  A    between atoms: _230  and  _231
REMARK   98  A    between atoms: _230  and  _233
REMARK   99  A    between atoms: _233  and  _234
REMARK  100  A    between atoms: _237  and  _239
REMARK  101  A    between atoms: _239  and  _240
REMARK  102  A    between atoms: _239  and  _242
REMARK  103  A    between atoms: _242  and  _243
REMARK  104  A    between atoms: _246  and  _248
REMARK  105  A    between atoms: _248  and  _249
REMARK  106  A    between atoms: _248  and  _251
REMARK  107  A    between atoms: _251  and  _252
REMARK  108  A    between atoms: _255  and  _257
REMARK  109  A    between atoms: _257  and  _258
REMARK  110  A    between atoms: _257  and  _260
REMARK  111  A    between atoms: _260  and  _261
REMARK  112  A    between atoms: _261  and  _262
REMARK  113  A    between atoms: _264  and  _266
REMARK  114  A    between atoms: _266  and  _267
REMARK  115  A    between atoms: _266  and  _269
REMARK  116  A    between atoms: _269  and  _270
REMARK  117  A    between atoms: _276  and  _278
REMARK  118  A    between atoms: _278  and  _279
REMARK  119  A    between atoms: _278  and  _281
REMARK  120  A    between atoms: _283  and  _285
REMARK  121  A    between atoms: _285  and  _286
REMARK  122  A    between atoms: _289  and  _291
REMARK  123  A    between atoms: _291  and  _292
REMARK  124  A    between atoms: _294  and  _296
REMARK  125  A    between atoms: _296  and  _297
REMARK  126  A    between atoms: _296  and  _299
REMARK  127  A    between atoms: _299  and  _300
REMARK  128  A    between atoms: _300  and  _301
REMARK  129  A    between atoms: _304  and  _306
REMARK  130  A    between atoms: _306  and  _307
REMARK  131  A    between atoms: _306  and  _309
REMARK  132  A    between atoms: _309  and  _310
REMARK  133  A    between atoms: _313  and  _315
REMARK  134  A    between atoms: _315  and  _316
REMARK  135  A    between atoms: _319  and  _321
REMARK  136  A    between atoms: _321  and  _322
REMARK  137  A    between atoms: _321  and  _324
REMARK  138  A    between atoms: _324  and  _325
REMARK  139  A    between atoms: _325  and  _448
REMARK  140  A    between atoms: _326  and  _328
REMARK  141  A    between atoms: _328  and  _329
REMARK  142  A    between atoms: _328  and  _331
REMARK  143  A    between atoms: _331  and  _332
REMARK  144  A    between atoms: _332  and  _333
REMARK  145  A    between atoms: _338  and  _340
REMARK  146  A    between atoms: _340  and  _341
REMARK  147  A    between atoms: _343  and  _345
REMARK  148  A    between atoms: _345  and  _346
REMARK  149  A    between atoms: _345  and  _348
REMARK  150  A    between atoms: _348  and  _349
REMARK  151  A    between atoms: _352  and  _354
REMARK  152  A    between atoms: _354  and  _355
REMARK  153  A    between atoms: _354  and  _357
REMARK  154  A    between atoms: _357  and  _358
REMARK  155  A    between atoms: _360  and  _362
REMARK  156  A    between atoms: _362  and  _363
REMARK  157  A    between atoms: _365  and  _367
REMARK  158  A    between atoms: _367  and  _368
REMARK  159  A    between atoms: _370  and  _372
REMARK  160  A    between atoms: _372  and  _373
REMARK  161  A    between atoms: _372  and  _375
REMARK  162  A    between atoms: _375  and  _376
REMARK  163  A    between atoms: _381  and  _383
REMARK  164  A    between atoms: _383  and  _384
REMARK  165  A    between atoms: _383  and  _386
REMARK  166  A    between atoms: _386  and  _387
REMARK  167  A    between atoms: _390  and  _392
REMARK  168  A    between atoms: _392  and  _393
REMARK  169  A    between atoms: _392  and  _395
REMARK  170  A    between atoms: _398  and  _400
REMARK  171  A    between atoms: _400  and  _401
REMARK  172  A    between atoms: _400  and  _403
REMARK  173  A    between atoms: _403  and  _404
REMARK  174  A    between atoms: _406  and  _408
REMARK  175  A    between atoms: _408  and  _409
REMARK  176  A    between atoms: _408  and  _411
REMARK  177  A    between atoms: _411  and  _412
REMARK  178  A    between atoms: _422  and  _424
REMARK  179  A    between atoms: _424  and  _425
REMARK  180  A    between atoms: _427  and  _429
REMARK  181  A    between atoms: _429  and  _430
REMARK  182  A    between atoms: _429  and  _432
REMARK  183  A    between atoms: _432  and  _433
REMARK  184  A    between atoms: _433  and  _434
REMARK  185  A    between atoms: _437  and  _439
REMARK  186  A    between atoms: _439  and  _440
REMARK  187  A    between atoms: _442  and  _444
REMARK  188  A    between atoms: _444  and  _445
REMARK  189  A    between atoms: _444  and  _447
REMARK  190  A    between atoms: _447  and  _448
REMARK  191  A    between atoms: _449  and  _451
REMARK  192  A    between atoms: _451  and  _452
REMARK  193  A    between atoms: _455  and  _457
REMARK  194  A    between atoms: _457  and  _458
REMARK  195  A    between atoms: _457  and  _460
REMARK  196  A    between atoms: _460  and  _461
REMARK  197  A    between atoms: _461  and  _462
REMARK  198  A    between atoms: _462  and  _463
REMARK  199  A    between atoms: _472  and  _474
REMARK  200  A    between atoms: _474  and  _475
REMARK  201  A    between atoms: _474  and  _477
REMARK  202  A    between atoms: _477  and  _478
REMARK  203  A    between atoms: _478  and  _479
REMARK  204  A    between atoms: _479  and  _480
REMARK  205  A    between atoms: _480  and  _481
REMARK  206  A    between atoms: _485  and  _487
REMARK  207  A    between atoms: _487  and  _488
REMARK  208  A    between atoms: _487  and  _490
REMARK  209  A    between atoms: _490  and  _491
REMARK  210  A    between atoms: _496  and  _497
REMARK  211  A    between atoms: _499  and  _501
REMARK  212  A    between atoms: _501  and  _502
REMARK  213  A    between atoms: _504  and  _506
REMARK  214  A    between atoms: _506  and  _507
REMARK  215  A    between atoms: _506  and  _509
REMARK  216  A    between atoms: _509  and  _510
REMARK  217  A    between atoms: _513  and  _515
REMARK  218  A    between atoms: _515  and  _516
REMARK  219  A    between atoms: _515  and  _518
REMARK  220  A    between atoms: _518  and  _519
REMARK  221  A    between atoms: _524  and  _525
REMARK  222  A    between atoms: _527  and  _529
REMARK  223  A    between atoms: _529  and  _530
REMARK  224  A    between atoms: _529  and  _532
REMARK  225  A    between atoms: _532  and  _533
REMARK                            x       y       z     vdW  Elec       q    Type
REMARK                         _______ _______ _______ _____ _____    ______ ____
ROOT
ATOM      1  O   HOH     1      20.363  -3.767  22.997  0.00  0.00    +0.000 OA
ENDROOT
TORSDOF 0
REMARK  Name = ../refined-set-2016/2vvc/2vvc_pocket.pdb
REMARK  225 active torsions:
REMARK  status: ('A' for Active; 'I' for Inactive)
REMARK    1  A    between atoms: _1  and  _5
REMARK    2  A    between atoms: _5  and  _6
REMARK    3  A    between atoms: _5  and  _8
REMARK    4  A    between atoms: _8  and  _9
REMARK    5  A    between atoms: _12  and  _14
REMARK    6  A    between atoms: _14  and  _15
REMARK    7  A    between atoms: _14  and  _17
REMARK    8  A    between atoms: _20  and  _22
REMARK    9  A    between atoms: _22  and  _23
REMARK   10  A    between atoms: _22  and  _25
REMARK   11  A    between atoms: _25  and  _26
REMARK   12  A    between atoms: _31  and  _33
REMARK   13  A    between atoms: _33  and  _34
REMARK   14  A    between atoms: _33  and  _36
REMARK   15  A    between atoms: _36  and  _37
REMARK   16  A    between atoms: _37  and  _38
REMARK   17  A    between atoms: _43  and  _45
REMARK   18  A    between atoms: _45  and  _46
REMARK   19  A    between atoms: _45  and  _48
REMARK   20  A    between atoms: _48  and  _49
REMARK   21  A    between atoms: _55  and  _57
REMARK   22  A    between atoms: _57  and  _58
REMARK   23  A    between atoms: _57  and  _60
REMARK   24  A    between atoms: _60  and  _61
REMARK   25  A    between atoms: _64  and  _66
REMARK   26  A    between atoms: _66  and  _67
REMARK   27  A    between atoms: _66  and  _69
REMARK   28  A    between atoms: _69  and  _70
REMARK   29  A    between atoms: _70  and  _71
REMARK   30  A    between atoms: _71  and  _72
REMARK   31  A    between atoms: _72  and  _73
REMARK   32  A    between atoms: _77  and  _79
REMARK   33  A    between atoms: _79  and  _80
REMARK   34  A    between atoms: _79  and  _82
REMARK   35  A    between atoms: _82  and  _83
REMARK   36  A    between atoms: _83  and  _84
REMARK   37  A    between atoms: _87  and  _89
REMARK   38  A    between atoms: _89  and  _90
REMARK   39  A    between atoms: _89  and  _92
REMARK   40  A    between atoms: _92  and  _93
REMARK   41  A    between atoms: _96  and  _98
REMARK   42  A    between atoms: _98  and  _99
REMARK   43  A    between atoms: _98  and  _101
REMARK   44  A    between atoms: _101  and  _102
REMARK   45  A    between atoms: _107  and  _108
REMARK   46  A    between atoms: _110  and  _112
REMARK   47  A    between atoms: _112  and  _113
REMARK   48  A    between atoms: _112  and  _115
REMARK   49  A    between atoms: _115  and  _116
REMARK   50  A    between atoms: _119  and  _121
REMARK   51  A    between atoms: _121  and  _122
REMARK   52  A    between atoms: _121  and  _124
REMARK   53  A    between atoms: _124  and  _125
REMARK   54  A    between atoms: _128  and  _130
REMARK   55  A    between atoms: _130  and  _131
REMARK   56  A    between atoms: _130  and  _133
REMARK   57  A    between atoms: _136  and  _138
REMARK   58  A    between atoms: _138  and  _139
REMARK   59  A    between atoms: _138  and  _141
REMARK   60  A    between atoms: _141  and  _142
REMARK   61  A    between atoms: _142  and  _143
REMARK   62  A    between atoms: _143  and  _144
REMARK   63  A    between atoms: _153  and  _155
REMARK   64  A    between atoms: _155  and  _156
REMARK   65  A    between atoms: _155  and  _158
REMARK   66  A    between atoms: _158  and  _159
REMARK   67  A    between atoms: _164  and  _166
REMARK   68  A    between atoms: _166  and  _167
REMARK   69  A    between atoms: _166  and  _169
REMARK   70  A    between atoms: _169  and  _170
REMARK   71  A    between atoms: _170  and  _171
REMARK   72  A    between atoms: _174  and  _176
REMARK   73  A    between atoms: _176  and  _177
REMARK   74  A    between atoms: _176  and  _179
REMARK   75  A    between atoms: _179  and  _180
REMARK   76  A    between atoms: _180  and  _181
REMARK   77  A    between atoms: _181  and  _182
REMARK   78  A    between atoms: _182  and  _183
REMARK   79  A    between atoms: _187  and  _189
REMARK   80  A    between atoms: _189  and  _190
REMARK   81  A    between atoms: _192  and  _194
REMARK   82  A    between atoms: _194  and  _195
REMARK   83  A    between atoms: _194  and  _197
REMARK   84  A    between atoms: _200  and  _202
REMARK   85  A    between atoms: _202  and  _203
REMARK   86  A    between atoms: _202  and  _205
REMARK   87  A    between atoms: _205  and  _206
REMARK   88  A    between atoms: _208  and  _210
REMARK   89  A    between atoms: _210  and  _211
REMARK   90  A    between atoms: _210  and  _213
REMARK   91  A    between atoms: _213  and  _214
REMARK   92  A    between atoms: _216  and  _218
REMARK   93  A    between atoms: _218  and  _219
REMARK   94  A    between atoms: _218  and  _221
REMARK   95  A    between atoms: _221  and  _222
REMARK   96  A    between atoms: _228  and  _230
REMARK   97  A    between atoms: _230  and  _231
REMARK   98  A    between atoms: _230  and  _233
REMARK   99  A    between atoms: _233  and  _234
REMARK  100  A    between atoms: _237  and  _239
REMARK  101  A    between atoms: _239  and  _240
REMARK  102  A    between atoms: _239  and  _242
REMARK  103  A    between atoms: _242  and  _243
REMARK  104  A    between atoms: _246  and  _248
REMARK  105  A    between atoms: _248  and  _249
REMARK  106  A    between atoms: _248  and  _251
REMARK  107  A    between atoms: _251  and  _252
REMARK  108  A    between atoms: _255  and  _257
REMARK  109  A    between atoms: _257  and  _258
REMARK  110  A    between atoms: _257  and  _260
REMARK  111  A    between atoms: _260  and  _261
REMARK  112  A    between atoms: _261  and  _262
REMARK  113  A    between atoms: _264  and  _266
REMARK  114  A    between atoms: _266  and  _267
REMARK  115  A    between atoms: _266  and  _269
REMARK  116  A    between atoms: _269  and  _270
REMARK  117  A    between atoms: _276  and  _278
REMARK  118  A    between atoms: _278  and  _279
REMARK  119  A    between atoms: _278  and  _281
REMARK  120  A    between atoms: _283  and  _285
REMARK  121  A    between atoms: _285  and  _286
REMARK  122  A    between atoms: _289  and  _291
REMARK  123  A    between atoms: _291  and  _292
REMARK  124  A    between atoms: _294  and  _296
REMARK  125  A    between atoms: _296  and  _297
REMARK  126  A    between atoms: _296  and  _299
REMARK  127  A    between atoms: _299  and  _300
REMARK  128  A    between atoms: _300  and  _301
REMARK  129  A    between atoms: _304  and  _306
REMARK  130  A    between atoms: _306  and  _307
REMARK  131  A    between atoms: _306  and  _309
REMARK  132  A    between atoms: _309  and  _310
REMARK  133  A    between atoms: _313  and  _315
REMARK  134  A    between atoms: _315  and  _316
REMARK  135  A    between atoms: _319  and  _321
REMARK  136  A    between atoms: _321  and  _322
REMARK  137  A    between atoms: _321  and  _324
REMARK  138  A    between atoms: _324  and  _325
REMARK  139  A    between atoms: _325  and  _448
REMARK  140  A    between atoms: _326  and  _328
REMARK  141  A    between atoms: _328  and  _329
REMARK  142  A    between atoms: _328  and  _331
REMARK  143  A    between atoms: _331  and  _332
REMARK  144  A    between atoms: _332  and  _333
REMARK  145  A    between atoms: _338  and  _340
REMARK  146  A    between atoms: _340  and  _341
REMARK  147  A    between atoms: _343  and  _345
REMARK  148  A    between atoms: _345  and  _346
REMARK  149  A    between atoms: _345  and  _348
REMARK  150  A    between atoms: _348  and  _349
REMARK  151  A    between atoms: _352  and  _354
REMARK  152  A    between atoms: _354  and  _355
REMARK  153  A    between atoms: _354  and  _357
REMARK  154  A    between atoms: _357  and  _358
REMARK  155  A    between atoms: _360  and  _362
REMARK  156  A    between atoms: _362  and  _363
REMARK  157  A    between atoms: _365  and  _367
REMARK  158  A    between atoms: _367  and  _368
REMARK  159  A    between atoms: _370  and  _372
REMARK  160  A    between atoms: _372  and  _373
REMARK  161  A    between atoms: _372  and  _375
REMARK  162  A    between atoms: _375  and  _376
REMARK  163  A    between atoms: _381  and  _383
REMARK  164  A    between atoms: _383  and  _384
REMARK  165  A    between atoms: _383  and  _386
REMARK  166  A    between atoms: _386  and  _387
REMARK  167  A    between atoms: _390  and  _392
REMARK  168  A    between atoms: _392  and  _393
REMARK  169  A    between atoms: _392  and  _395
REMARK  170  A    between atoms: _398  and  _400
REMARK  171  A    between atoms: _400  and  _401
REMARK  172  A    between atoms: _400  and  _403
REMARK  173  A    between atoms: _403  and  _404
REMARK  174  A    between atoms: _406  and  _408
REMARK  175  A    between atoms: _408  and  _409
REMARK  176  A    between atoms: _408  and  _411
REMARK  177  A    between atoms: _411  and  _412
REMARK  178  A    between atoms: _422  and  _424
REMARK  179  A    between atoms: _424  and  _425
REMARK  180  A    between atoms: _427  and  _429
REMARK  181  A    between atoms: _429  and  _430
REMARK  182  A    between atoms: _429  and  _432
REMARK  183  A    between atoms: _432  and  _433
REMARK  184  A    between atoms: _433  and  _434
REMARK  185  A    between atoms: _437  and  _439
REMARK  186  A    between atoms: _439  and  _440
REMARK  187  A    between atoms: _442  and  _444
REMARK  188  A    between atoms: _444  and  _445
REMARK  189  A    between atoms: _444  and  _447
REMARK  190  A    between atoms: _447  and  _448
REMARK  191  A    between atoms: _449  and  _451
REMARK  192  A    between atoms: _451  and  _452
REMARK  193  A    between atoms: _455  and  _457
REMARK  194  A    between atoms: _457  and  _458
REMARK  195  A    between atoms: _457  and  _460
REMARK  196  A    between atoms: _460  and  _461
REMARK  197  A    between atoms: _461  and  _462
REMARK  198  A    between atoms: _462  and  _463
REMARK  199  A    between atoms: _472  and  _474
REMARK  200  A    between atoms: _474  and  _475
REMARK  201  A    between atoms: _474  and  _477
REMARK  202  A    between atoms: _477  and  _478
REMARK  203  A    between atoms: _478  and  _479
REMARK  204  A    between atoms: _479  and  _480
REMARK  205  A    between atoms: _480  and  _481
REMARK  206  A    between atoms: _485  and  _487
REMARK  207  A    between atoms: _487  and  _488
REMARK  208  A    between atoms: _487  and  _490
REMARK  209  A    between atoms: _490  and  _491
REMARK  210  A    between atoms: _496  and  _497
REMARK  211  A    between atoms: _499  and  _501
REMARK  212  A    between atoms: _501  and  _502
REMARK  213  A    between atoms: _504  and  _506
REMARK  214  A    between atoms: _506  and  _507
REMARK  215  A    between atoms: _506  and  _509
REMARK  216  A    between atoms: _509  and  _510
REMARK  217  A    between atoms: _513  and  _515
REMARK  218  A    between atoms: _515  and  _516
REMARK  219  A    between atoms: _515  and  _518
REMARK  220  A    between atoms: _518  and  _519
REMARK  221  A    between atoms: _524  and  _525
REMARK  222  A    between atoms: _527  and  _529
REMARK  223  A    between atoms: _529  and  _530
REMARK  224  A    between atoms: _529  and  _532
REMARK  225  A    between atoms: _532  and  _533
REMARK                            x       y       z     vdW  Elec       q    Type
REMARK                         _______ _______ _______ _____ _____    ______ ____
ROOT
ATOM      1  O   HOH     1      16.557  -6.045  22.995  0.00  0.00    +0.000 OA
ENDROOT
TORSDOF 0
REMARK  Name = ../refined-set-2016/2vvc/2vvc_pocket.pdb
REMARK  225 active torsions:
REMARK  status: ('A' for Active; 'I' for Inactive)
REMARK    1  A    between atoms: _1  and  _5
REMARK    2  A    between atoms: _5  and  _6
REMARK    3  A    between atoms: _5  and  _8
REMARK    4  A    between atoms: _8  and  _9
REMARK    5  A    between atoms: _12  and  _14
REMARK    6  A    between atoms: _14  and  _15
REMARK    7  A    between atoms: _14  and  _17
REMARK    8  A    between atoms: _20  and  _22
REMARK    9  A    between atoms: _22  and  _23
REMARK   10  A    between atoms: _22  and  _25
REMARK   11  A    between atoms: _25  and  _26
REMARK   12  A    between atoms: _31  and  _33
REMARK   13  A    between atoms: _33  and  _34
REMARK   14  A    between atoms: _33  and  _36
REMARK   15  A    between atoms: _36  and  _37
REMARK   16  A    between atoms: _37  and  _38
REMARK   17  A    between atoms: _43  and  _45
REMARK   18  A    between atoms: _45  and  _46
REMARK   19  A    between atoms: _45  and  _48
REMARK   20  A    between atoms: _48  and  _49
REMARK   21  A    between atoms: _55  and  _57
REMARK   22  A    between atoms: _57  and  _58
REMARK   23  A    between atoms: _57  and  _60
REMARK   24  A    between atoms: _60  and  _61
REMARK   25  A    between atoms: _64  and  _66
REMARK   26  A    between atoms: _66  and  _67
REMARK   27  A    between atoms: _66  and  _69
REMARK   28  A    between atoms: _69  and  _70
REMARK   29  A    between atoms: _70  and  _71
REMARK   30  A    between atoms: _71  and  _72
REMARK   31  A    between atoms: _72  and  _73
REMARK   32  A    between atoms: _77  and  _79
REMARK   33  A    between atoms: _79  and  _80
REMARK   34  A    between atoms: _79  and  _82
REMARK   35  A    between atoms: _82  and  _83
REMARK   36  A    between atoms: _83  and  _84
REMARK   37  A    between atoms: _87  and  _89
REMARK   38  A    between atoms: _89  and  _90
REMARK   39  A    between atoms: _89  and  _92
REMARK   40  A    between atoms: _92  and  _93
REMARK   41  A    between atoms: _96  and  _98
REMARK   42  A    between atoms: _98  and  _99
REMARK   43  A    between atoms: _98  and  _101
REMARK   44  A    between atoms: _101  and  _102
REMARK   45  A    between atoms: _107  and  _108
REMARK   46  A    between atoms: _110  and  _112
REMARK   47  A    between atoms: _112  and  _113
REMARK   48  A    between atoms: _112  and  _115
REMARK   49  A    between atoms: _115  and  _116
REMARK   50  A    between atoms: _119  and  _121
REMARK   51  A    between atoms: _121  and  _122
REMARK   52  A    between atoms: _121  and  _124
REMARK   53  A    between atoms: _124  and  _125
REMARK   54  A    between atoms: _128  and  _130
REMARK   55  A    between atoms: _130  and  _131
REMARK   56  A    between atoms: _130  and  _133
REMARK   57  A    between atoms: _136  and  _138
REMARK   58  A    between atoms: _138  and  _139
REMARK   59  A    between atoms: _138  and  _141
REMARK   60  A    between atoms: _141  and  _142
REMARK   61  A    between atoms: _142  and  _143
REMARK   62  A    between atoms: _143  and  _144
REMARK   63  A    between atoms: _153  and  _155
REMARK   64  A    between atoms: _155  and  _156
REMARK   65  A    between atoms: _155  and  _158
REMARK   66  A    between atoms: _158  and  _159
REMARK   67  A    between atoms: _164  and  _166
REMARK   68  A    between atoms: _166  and  _167
REMARK   69  A    between atoms: _166  and  _169
REMARK   70  A    between atoms: _169  and  _170
REMARK   71  A    between atoms: _170  and  _171
REMARK   72  A    between atoms: _174  and  _176
REMARK   73  A    between atoms: _176  and  _177
REMARK   74  A    between atoms: _176  and  _179
REMARK   75  A    between atoms: _179  and  _180
REMARK   76  A    between atoms: _180  and  _181
REMARK   77  A    between atoms: _181  and  _182
REMARK   78  A    between atoms: _182  and  _183
REMARK   79  A    between atoms: _187  and  _189
REMARK   80  A    between atoms: _189  and  _190
REMARK   81  A    between atoms: _192  and  _194
REMARK   82  A    between atoms: _194  and  _195
REMARK   83  A    between atoms: _194  and  _197
REMARK   84  A    between atoms: _200  and  _202
REMARK   85  A    between atoms: _202  and  _203
REMARK   86  A    between atoms: _202  and  _205
REMARK   87  A    between atoms: _205  and  _206
REMARK   88  A    between atoms: _208  and  _210
REMARK   89  A    between atoms: _210  and  _211
REMARK   90  A    between atoms: _210  and  _213
REMARK   91  A    between atoms: _213  and  _214
REMARK   92  A    between atoms: _216  and  _218
REMARK   93  A    between atoms: _218  and  _219
REMARK   94  A    between atoms: _218  and  _221
REMARK   95  A    between atoms: _221  and  _222
REMARK   96  A    between atoms: _228  and  _230
REMARK   97  A    between atoms: _230  and  _231
REMARK   98  A    between atoms: _230  and  _233
REMARK   99  A    between atoms: _233  and  _234
REMARK  100  A    between atoms: _237  and  _239
REMARK  101  A    between atoms: _239  and  _240
REMARK  102  A    between atoms: _239  and  _242
REMARK  103  A    between atoms: _242  and  _243
REMARK  104  A    between atoms: _246  and  _248
REMARK  105  A    between atoms: _248  and  _249
REMARK  106  A    between atoms: _248  and  _251
REMARK  107  A    between atoms: _251  and  _252
REMARK  108  A    between atoms: _255  and  _257
REMARK  109  A    between atoms: _257  and  _258
REMARK  110  A    between atoms: _257  and  _260
REMARK  111  A    between atoms: _260  and  _261
REMARK  112  A    between atoms: _261  and  _262
REMARK  113  A    between atoms: _264  and  _266
REMARK  114  A    between atoms: _266  and  _267
REMARK  115  A    between atoms: _266  and  _269
REMARK  116  A    between atoms: _269  and  _270
REMARK  117  A    between atoms: _276  and  _278
REMARK  118  A    between atoms: _278  and  _279
REMARK  119  A    between atoms: _278  and  _281
REMARK  120  A    between atoms: _283  and  _285
REMARK  121  A    between atoms: _285  and  _286
REMARK  122  A    between atoms: _289  and  _291
REMARK  123  A    between atoms: _291  and  _292
REMARK  124  A    between atoms: _294  and  _296
REMARK  125  A    between atoms: _296  and  _297
REMARK  126  A    between atoms: _296  and  _299
REMARK  127  A    between atoms: _299  and  _300
REMARK  128  A    between atoms: _300  and  _301
REMARK  129  A    between atoms: _304  and  _306
REMARK  130  A    between atoms: _306  and  _307
REMARK  131  A    between atoms: _306  and  _309
REMARK  132  A    between atoms: _309  and  _310
REMARK  133  A    between atoms: _313  and  _315
REMARK  134  A    between atoms: _315  and  _316
REMARK  135  A    between atoms: _319  and  _321
REMARK  136  A    between atoms: _321  and  _322
REMARK  137  A    between atoms: _321  and  _324
REMARK  138  A    between atoms: _324  and  _325
REMARK  139  A    between atoms: _325  and  _448
REMARK  140  A    between atoms: _326  and  _328
REMARK  141  A    between atoms: _328  and  _329
REMARK  142  A    between atoms: _328  and  _331
REMARK  143  A    between atoms: _331  and  _332
REMARK  144  A    between atoms: _332  and  _333
REMARK  145  A    between atoms: _338  and  _340
REMARK  146  A    between atoms: _340  and  _341
REMARK  147  A    between atoms: _343  and  _345
REMARK  148  A    between atoms: _345  and  _346
REMARK  149  A    between atoms: _345  and  _348
REMARK  150  A    between atoms: _348  and  _349
REMARK  151  A    between atoms: _352  and  _354
REMARK  152  A    between atoms: _354  and  _355
REMARK  153  A    between atoms: _354  and  _357
REMARK  154  A    between atoms: _357  and  _358
REMARK  155  A    between atoms: _360  and  _362
REMARK  156  A    between atoms: _362  and  _363
REMARK  157  A    between atoms: _365  and  _367
REMARK  158  A    between atoms: _367  and  _368
REMARK  159  A    between atoms: _370  and  _372
REMARK  160  A    between atoms: _372  and  _373
REMARK  161  A    between atoms: _372  and  _375
REMARK  162  A    between atoms: _375  and  _376
REMARK  163  A    between atoms: _381  and  _383
REMARK  164  A    between atoms: _383  and  _384
REMARK  165  A    between atoms: _383  and  _386
REMARK  166  A    between atoms: _386  and  _387
REMARK  167  A    between atoms: _390  and  _392
REMARK  168  A    between atoms: _392  and  _393
REMARK  169  A    between atoms: _392  and  _395
REMARK  170  A    between atoms: _398  and  _400
REMARK  171  A    between atoms: _400  and  _401
REMARK  172  A    between atoms: _400  and  _403
REMARK  173  A    between atoms: _403  and  _404
REMARK  174  A    between atoms: _406  and  _408
REMARK  175  A    between atoms: _408  and  _409
REMARK  176  A    between atoms: _408  and  _411
REMARK  177  A    between atoms: _411  and  _412
REMARK  178  A    between atoms: _422  and  _424
REMARK  179  A    between atoms: _424  and  _425
REMARK  180  A    between atoms: _427  and  _429
REMARK  181  A    between atoms: _429  and  _430
REMARK  182  A    between atoms: _429  and  _432
REMARK  183  A    between atoms: _432  and  _433
REMARK  184  A    between atoms: _433  and  _434
REMARK  185  A    between atoms: _437  and  _439
REMARK  186  A    between atoms: _439  and  _440
REMARK  187  A    between atoms: _442  and  _444
REMARK  188  A    between atoms: _444  and  _445
REMARK  189  A    between atoms: _444  and  _447
REMARK  190  A    between atoms: _447  and  _448
REMARK  191  A    between atoms: _449  and  _451
REMARK  192  A    between atoms: _451  and  _452
REMARK  193  A    between atoms: _455  and  _457
REMARK  194  A    between atoms: _457  and  _458
REMARK  195  A    between atoms: _457  and  _460
REMARK  196  A    between atoms: _460  and  _461
REMARK  197  A    between atoms: _461  and  _462
REMARK  198  A    between atoms: _462  and  _463
REMARK  199  A    between atoms: _472  and  _474
REMARK  200  A    between atoms: _474  and  _475
REMARK  201  A    between atoms: _474  and  _477
REMARK  202  A    between atoms: _477  and  _478
REMARK  203  A    between atoms: _478  and  _479
REMARK  204  A    between atoms: _479  and  _480
REMARK  205  A    between atoms: _480  and  _481
REMARK  206  A    between atoms: _485  and  _487
REMARK  207  A    between atoms: _487  and  _488
REMARK  208  A    between atoms: _487  and  _490
REMARK  209  A    between atoms: _490  and  _491
REMARK  210  A    between atoms: _496  and  _497
REMARK  211  A    between atoms: _499  and  _501
REMARK  212  A    between atoms: _501  and  _502
REMARK  213  A    between atoms: _504  and  _506
REMARK  214  A    between atoms: _506  and  _507
REMARK  215  A    between atoms: _506  and  _509
REMARK  216  A    between atoms: _509  and  _510
REMARK  217  A    between atoms: _513  and  _515
REMARK  218  A    between atoms: _515  and  _516
REMARK  219  A    between atoms: _515  and  _518
REMARK  220  A    between atoms: _518  and  _519
REMARK  221  A    between atoms: _524  and  _525
REMARK  222  A    between atoms: _527  and  _529
REMARK  223  A    between atoms: _529  and  _530
REMARK  224  A    between atoms: _529  and  _532
REMARK  225  A    between atoms: _532  and  _533
REMARK                            x       y       z     vdW  Elec       q    Type
REMARK                         _______ _______ _______ _____ _____    ______ ____
ROOT
ATOM      1  O   HOH     1      22.578  -0.781  21.856  0.00  0.00    +0.000 OA
ENDROOT
TORSDOF 0
REMARK  Name = ../refined-set-2016/2vvc/2vvc_pocket.pdb
REMARK  225 active torsions:
REMARK  status: ('A' for Active; 'I' for Inactive)
REMARK    1  A    between atoms: _1  and  _5
REMARK    2  A    between atoms: _5  and  _6
REMARK    3  A    between atoms: _5  and  _8
REMARK    4  A    between atoms: _8  and  _9
REMARK    5  A    between atoms: _12  and  _14
REMARK    6  A    between atoms: _14  and  _15
REMARK    7  A    between atoms: _14  and  _17
REMARK    8  A    between atoms: _20  and  _22
REMARK    9  A    between atoms: _22  and  _23
REMARK   10  A    between atoms: _22  and  _25
REMARK   11  A    between atoms: _25  and  _26
REMARK   12  A    between atoms: _31  and  _33
REMARK   13  A    between atoms: _33  and  _34
REMARK   14  A    between atoms: _33  and  _36
REMARK   15  A    between atoms: _36  and  _37
REMARK   16  A    between atoms: _37  and  _38
REMARK   17  A    between atoms: _43  and  _45
REMARK   18  A    between atoms: _45  and  _46
REMARK   19  A    between atoms: _45  and  _48
REMARK   20  A    between atoms: _48  and  _49
REMARK   21  A    between atoms: _55  and  _57
REMARK   22  A    between atoms: _57  and  _58
REMARK   23  A    between atoms: _57  and  _60
REMARK   24  A    between atoms: _60  and  _61
REMARK   25  A    between atoms: _64  and  _66
REMARK   26  A    between atoms: _66  and  _67
REMARK   27  A    between atoms: _66  and  _69
REMARK   28  A    between atoms: _69  and  _70
REMARK   29  A    between atoms: _70  and  _71
REMARK   30  A    between atoms: _71  and  _72
REMARK   31  A    between atoms: _72  and  _73
REMARK   32  A    between atoms: _77  and  _79
REMARK   33  A    between atoms: _79  and  _80
REMARK   34  A    between atoms: _79  and  _82
REMARK   35  A    between atoms: _82  and  _83
REMARK   36  A    between atoms: _83  and  _84
REMARK   37  A    between atoms: _87  and  _89
REMARK   38  A    between atoms: _89  and  _90
REMARK   39  A    between atoms: _89  and  _92
REMARK   40  A    between atoms: _92  and  _93
REMARK   41  A    between atoms: _96  and  _98
REMARK   42  A    between atoms: _98  and  _99
REMARK   43  A    between atoms: _98  and  _101
REMARK   44  A    between atoms: _101  and  _102
REMARK   45  A    between atoms: _107  and  _108
REMARK   46  A    between atoms: _110  and  _112
REMARK   47  A    between atoms: _112  and  _113
REMARK   48  A    between atoms: _112  and  _115
REMARK   49  A    between atoms: _115  and  _116
REMARK   50  A    between atoms: _119  and  _121
REMARK   51  A    between atoms: _121  and  _122
REMARK   52  A    between atoms: _121  and  _124
REMARK   53  A    between atoms: _124  and  _125
REMARK   54  A    between atoms: _128  and  _130
REMARK   55  A    between atoms: _130  and  _131
REMARK   56  A    between atoms: _130  and  _133
REMARK   57  A    between atoms: _136  and  _138
REMARK   58  A    between atoms: _138  and  _139
REMARK   59  A    between atoms: _138  and  _141
REMARK   60  A    between atoms: _141  and  _142
REMARK   61  A    between atoms: _142  and  _143
REMARK   62  A    between atoms: _143  and  _144
REMARK   63  A    between atoms: _153  and  _155
REMARK   64  A    between atoms: _155  and  _156
REMARK   65  A    between atoms: _155  and  _158
REMARK   66  A    between atoms: _158  and  _159
REMARK   67  A    between atoms: _164  and  _166
REMARK   68  A    between atoms: _166  and  _167
REMARK   69  A    between atoms: _166  and  _169
REMARK   70  A    between atoms: _169  and  _170
REMARK   71  A    between atoms: _170  and  _171
REMARK   72  A    between atoms: _174  and  _176
REMARK   73  A    between atoms: _176  and  _177
REMARK   74  A    between atoms: _176  and  _179
REMARK   75  A    between atoms: _179  and  _180
REMARK   76  A    between atoms: _180  and  _181
REMARK   77  A    between atoms: _181  and  _182
REMARK   78  A    between atoms: _182  and  _183
REMARK   79  A    between atoms: _187  and  _189
REMARK   80  A    between atoms: _189  and  _190
REMARK   81  A    between atoms: _192  and  _194
REMARK   82  A    between atoms: _194  and  _195
REMARK   83  A    between atoms: _194  and  _197
REMARK   84  A    between atoms: _200  and  _202
REMARK   85  A    between atoms: _202  and  _203
REMARK   86  A    between atoms: _202  and  _205
REMARK   87  A    between atoms: _205  and  _206
REMARK   88  A    between atoms: _208  and  _210
REMARK   89  A    between atoms: _210  and  _211
REMARK   90  A    between atoms: _210  and  _213
REMARK   91  A    between atoms: _213  and  _214
REMARK   92  A    between atoms: _216  and  _218
REMARK   93  A    between atoms: _218  and  _219
REMARK   94  A    between atoms: _218  and  _221
REMARK   95  A    between atoms: _221  and  _222
REMARK   96  A    between atoms: _228  and  _230
REMARK   97  A    between atoms: _230  and  _231
REMARK   98  A    between atoms: _230  and  _233
REMARK   99  A    between atoms: _233  and  _234
REMARK  100  A    between atoms: _237  and  _239
REMARK  101  A    between atoms: _239  and  _240
REMARK  102  A    between atoms: _239  and  _242
REMARK  103  A    between atoms: _242  and  _243
REMARK  104  A    between atoms: _246  and  _248
REMARK  105  A    between atoms: _248  and  _249
REMARK  106  A    between atoms: _248  and  _251
REMARK  107  A    between atoms: _251  and  _252
REMARK  108  A    between atoms: _255  and  _257
REMARK  109  A    between atoms: _257  and  _258
REMARK  110  A    between atoms: _257  and  _260
REMARK  111  A    between atoms: _260  and  _261
REMARK  112  A    between atoms: _261  and  _262
REMARK  113  A    between atoms: _264  and  _266
REMARK  114  A    between atoms: _266  and  _267
REMARK  115  A    between atoms: _266  and  _269
REMARK  116  A    between atoms: _269  and  _270
REMARK  117  A    between atoms: _276  and  _278
REMARK  118  A    between atoms: _278  and  _279
REMARK  119  A    between atoms: _278  and  _281
REMARK  120  A    between atoms: _283  and  _285
REMARK  121  A    between atoms: _285  and  _286
REMARK  122  A    between atoms: _289  and  _291
REMARK  123  A    between atoms: _291  and  _292
REMARK  124  A    between atoms: _294  and  _296
REMARK  125  A    between atoms: _296  and  _297
REMARK  126  A    between atoms: _296  and  _299
REMARK  127  A    between atoms: _299  and  _300
REMARK  128  A    between atoms: _300  and  _301
REMARK  129  A    between atoms: _304  and  _306
REMARK  130  A    between atoms: _306  and  _307
REMARK  131  A    between atoms: _306  and  _309
REMARK  132  A    between atoms: _309  and  _310
REMARK  133  A    between atoms: _313  and  _315
REMARK  134  A    between atoms: _315  and  _316
REMARK  135  A    between atoms: _319  and  _321
REMARK  136  A    between atoms: _321  and  _322
REMARK  137  A    between atoms: _321  and  _324
REMARK  138  A    between atoms: _324  and  _325
REMARK  139  A    between atoms: _325  and  _448
REMARK  140  A    between atoms: _326  and  _328
REMARK  141  A    between atoms: _328  and  _329
REMARK  142  A    between atoms: _328  and  _331
REMARK  143  A    between atoms: _331  and  _332
REMARK  144  A    between atoms: _332  and  _333
REMARK  145  A    between atoms: _338  and  _340
REMARK  146  A    between atoms: _340  and  _341
REMARK  147  A    between atoms: _343  and  _345
REMARK  148  A    between atoms: _345  and  _346
REMARK  149  A    between atoms: _345  and  _348
REMARK  150  A    between atoms: _348  and  _349
REMARK  151  A    between atoms: _352  and  _354
REMARK  152  A    between atoms: _354  and  _355
REMARK  153  A    between atoms: _354  and  _357
REMARK  154  A    between atoms: _357  and  _358
REMARK  155  A    between atoms: _360  and  _362
REMARK  156  A    between atoms: _362  and  _363
REMARK  157  A    between atoms: _365  and  _367
REMARK  158  A    between atoms: _367  and  _368
REMARK  159  A    between atoms: _370  and  _372
REMARK  160  A    between atoms: _372  and  _373
REMARK  161  A    between atoms: _372  and  _375
REMARK  162  A    between atoms: _375  and  _376
REMARK  163  A    between atoms: _381  and  _383
REMARK  164  A    between atoms: _383  and  _384
REMARK  165  A    between atoms: _383  and  _386
REMARK  166  A    between atoms: _386  and  _387
REMARK  167  A    between atoms: _390  and  _392
REMARK  168  A    between atoms: _392  and  _393
REMARK  169  A    between atoms: _392  and  _395
REMARK  170  A    between atoms: _398  and  _400
REMARK  171  A    between atoms: _400  and  _401
REMARK  172  A    between atoms: _400  and  _403
REMARK  173  A    between atoms: _403  and  _404
REMARK  174  A    between atoms: _406  and  _408
REMARK  175  A    between atoms: _408  and  _409
REMARK  176  A    between atoms: _408  and  _411
REMARK  177  A    between atoms: _411  and  _412
REMARK  178  A    between atoms: _422  and  _424
REMARK  179  A    between atoms: _424  and  _425
REMARK  180  A    between atoms: _427  and  _429
REMARK  181  A    between atoms: _429  and  _430
REMARK  182  A    between atoms: _429  and  _432
REMARK  183  A    between atoms: _432  and  _433
REMARK  184  A    between atoms: _433  and  _434
REMARK  185  A    between atoms: _437  and  _439
REMARK  186  A    between atoms: _439  and  _440
REMARK  187  A    between atoms: _442  and  _444
REMARK  188  A    between atoms: _444  and  _445
REMARK  189  A    between atoms: _444  and  _447
REMARK  190  A    between atoms: _447  and  _448
REMARK  191  A    between atoms: _449  and  _451
REMARK  192  A    between atoms: _451  and  _452
REMARK  193  A    between atoms: _455  and  _457
REMARK  194  A    between atoms: _457  and  _458
REMARK  195  A    between atoms: _457  and  _460
REMARK  196  A    between atoms: _460  and  _461
REMARK  197  A    between atoms: _461  and  _462
REMARK  198  A    between atoms: _462  and  _463
REMARK  199  A    between atoms: _472  and  _474
REMARK  200  A    between atoms: _474  and  _475
REMARK  201  A    between atoms: _474  and  _477
REMARK  202  A    between atoms: _477  and  _478
REMARK  203  A    between atoms: _478  and  _479
REMARK  204  A    between atoms: _479  and  _480
REMARK  205  A    between atoms: _480  and  _481
REMARK  206  A    between atoms: _485  and  _487
REMARK  207  A    between atoms: _487  and  _488
REMARK  208  A    between atoms: _487  and  _490
REMARK  209  A    between atoms: _490  and  _491
REMARK  210  A    between atoms: _496  and  _497
REMARK  211  A    between atoms: _499  and  _501
REMARK  212  A    between atoms: _501  and  _502
REMARK  213  A    between atoms: _504  and  _506
REMARK  214  A    between atoms: _506  and  _507
REMARK  215  A    between atoms: _506  and  _509
REMARK  216  A    between atoms: _509  and  _510
REMARK  217  A    between atoms: _513  and  _515
REMARK  218  A    between atoms: _515  and  _516
REMARK  219  A    between atoms: _515  and  _518
REMARK  220  A    between atoms: _518  and  _519
REMARK  221  A    between atoms: _524  and  _525
REMARK  222  A    between atoms: _527  and  _529
REMARK  223  A    between atoms: _529  and  _530
REMARK  224  A    between atoms: _529  and  _532
REMARK  225  A    between atoms: _532  and  _533
REMARK                            x       y       z     vdW  Elec       q    Type
REMARK                         _______ _______ _______ _____ _____    ______ ____
ROOT
ATOM      1  O   HOH     1      17.239  11.137  37.513  0.00  0.00    +0.000 OA
ENDROOT
TORSDOF 0
REMARK  Name = ../refined-set-2016/2vvc/2vvc_pocket.pdb
REMARK  225 active torsions:
REMARK  status: ('A' for Active; 'I' for Inactive)
REMARK    1  A    between atoms: _1  and  _5
REMARK    2  A    between atoms: _5  and  _6
REMARK    3  A    between atoms: _5  and  _8
REMARK    4  A    between atoms: _8  and  _9
REMARK    5  A    between atoms: _12  and  _14
REMARK    6  A    between atoms: _14  and  _15
REMARK    7  A    between atoms: _14  and  _17
REMARK    8  A    between atoms: _20  and  _22
REMARK    9  A    between atoms: _22  and  _23
REMARK   10  A    between atoms: _22  and  _25
REMARK   11  A    between atoms: _25  and  _26
REMARK   12  A    between atoms: _31  and  _33
REMARK   13  A    between atoms: _33  and  _34
REMARK   14  A    between atoms: _33  and  _36
REMARK   15  A    between atoms: _36  and  _37
REMARK   16  A    between atoms: _37  and  _38
REMARK   17  A    between atoms: _43  and  _45
REMARK   18  A    between atoms: _45  and  _46
REMARK   19  A    between atoms: _45  and  _48
REMARK   20  A    between atoms: _48  and  _49
REMARK   21  A    between atoms: _55  and  _57
REMARK   22  A    between atoms: _57  and  _58
REMARK   23  A    between atoms: _57  and  _60
REMARK   24  A    between atoms: _60  and  _61
REMARK   25  A    between atoms: _64  and  _66
REMARK   26  A    between atoms: _66  and  _67
REMARK   27  A    between atoms: _66  and  _69
REMARK   28  A    between atoms: _69  and  _70
REMARK   29  A    between atoms: _70  and  _71
REMARK   30  A    between atoms: _71  and  _72
REMARK   31  A    between atoms: _72  and  _73
REMARK   32  A    between atoms: _77  and  _79
REMARK   33  A    between atoms: _79  and  _80
REMARK   34  A    between atoms: _79  and  _82
REMARK   35  A    between atoms: _82  and  _83
REMARK   36  A    between atoms: _83  and  _84
REMARK   37  A    between atoms: _87  and  _89
REMARK   38  A    between atoms: _89  and  _90
REMARK   39  A    between atoms: _89  and  _92
REMARK   40  A    between atoms: _92  and  _93
REMARK   41  A    between atoms: _96  and  _98
REMARK   42  A    between atoms: _98  and  _99
REMARK   43  A    between atoms: _98  and  _101
REMARK   44  A    between atoms: _101  and  _102
REMARK   45  A    between atoms: _107  and  _108
REMARK   46  A    between atoms: _110  and  _112
REMARK   47  A    between atoms: _112  and  _113
REMARK   48  A    between atoms: _112  and  _115
REMARK   49  A    between atoms: _115  and  _116
REMARK   50  A    between atoms: _119  and  _121
REMARK   51  A    between atoms: _121  and  _122
REMARK   52  A    between atoms: _121  and  _124
REMARK   53  A    between atoms: _124  and  _125
REMARK   54  A    between atoms: _128  and  _130
REMARK   55  A    between atoms: _130  and  _131
REMARK   56  A    between atoms: _130  and  _133
REMARK   57  A    between atoms: _136  and  _138
REMARK   58  A    between atoms: _138  and  _139
REMARK   59  A    between atoms: _138  and  _141
REMARK   60  A    between atoms: _141  and  _142
REMARK   61  A    between atoms: _142  and  _143
REMARK   62  A    between atoms: _143  and  _144
REMARK   63  A    between atoms: _153  and  _155
REMARK   64  A    between atoms: _155  and  _156
REMARK   65  A    between atoms: _155  and  _158
REMARK   66  A    between atoms: _158  and  _159
REMARK   67  A    between atoms: _164  and  _166
REMARK   68  A    between atoms: _166  and  _167
REMARK   69  A    between atoms: _166  and  _169
REMARK   70  A    between atoms: _169  and  _170
REMARK   71  A    between atoms: _170  and  _171
REMARK   72  A    between atoms: _174  and  _176
REMARK   73  A    between atoms: _176  and  _177
REMARK   74  A    between atoms: _176  and  _179
REMARK   75  A    between atoms: _179  and  _180
REMARK   76  A    between atoms: _180  and  _181
REMARK   77  A    between atoms: _181  and  _182
REMARK   78  A    between atoms: _182  and  _183
REMARK   79  A    between atoms: _187  and  _189
REMARK   80  A    between atoms: _189  and  _190
REMARK   81  A    between atoms: _192  and  _194
REMARK   82  A    between atoms: _194  and  _195
REMARK   83  A    between atoms: _194  and  _197
REMARK   84  A    between atoms: _200  and  _202
REMARK   85  A    between atoms: _202  and  _203
REMARK   86  A    between atoms: _202  and  _205
REMARK   87  A    between atoms: _205  and  _206
REMARK   88  A    between atoms: _208  and  _210
REMARK   89  A    between atoms: _210  and  _211
REMARK   90  A    between atoms: _210  and  _213
REMARK   91  A    between atoms: _213  and  _214
REMARK   92  A    between atoms: _216  and  _218
REMARK   93  A    between atoms: _218  and  _219
REMARK   94  A    between atoms: _218  and  _221
REMARK   95  A    between atoms: _221  and  _222
REMARK   96  A    between atoms: _228  and  _230
REMARK   97  A    between atoms: _230  and  _231
REMARK   98  A    between atoms: _230  and  _233
REMARK   99  A    between atoms: _233  and  _234
REMARK  100  A    between atoms: _237  and  _239
REMARK  101  A    between atoms: _239  and  _240
REMARK  102  A    between atoms: _239  and  _242
REMARK  103  A    between atoms: _242  and  _243
REMARK  104  A    between atoms: _246  and  _248
REMARK  105  A    between atoms: _248  and  _249
REMARK  106  A    between atoms: _248  and  _251
REMARK  107  A    between atoms: _251  and  _252
REMARK  108  A    between atoms: _255  and  _257
REMARK  109  A    between atoms: _257  and  _258
REMARK  110  A    between atoms: _257  and  _260
REMARK  111  A    between atoms: _260  and  _261
REMARK  112  A    between atoms: _261  and  _262
REMARK  113  A    between atoms: _264  and  _266
REMARK  114  A    between atoms: _266  and  _267
REMARK  115  A    between atoms: _266  and  _269
REMARK  116  A    between atoms: _269  and  _270
REMARK  117  A    between atoms: _276  and  _278
REMARK  118  A    between atoms: _278  and  _279
REMARK  119  A    between atoms: _278  and  _281
REMARK  120  A    between atoms: _283  and  _285
REMARK  121  A    between atoms: _285  and  _286
REMARK  122  A    between atoms: _289  and  _291
REMARK  123  A    between atoms: _291  and  _292
REMARK  124  A    between atoms: _294  and  _296
REMARK  125  A    between atoms: _296  and  _297
REMARK  126  A    between atoms: _296  and  _299
REMARK  127  A    between atoms: _299  and  _300
REMARK  128  A    between atoms: _300  and  _301
REMARK  129  A    between atoms: _304  and  _306
REMARK  130  A    between atoms: _306  and  _307
REMARK  131  A    between atoms: _306  and  _309
REMARK  132  A    between atoms: _309  and  _310
REMARK  133  A    between atoms: _313  and  _315
REMARK  134  A    between atoms: _315  and  _316
REMARK  135  A    between atoms: _319  and  _321
REMARK  136  A    between atoms: _321  and  _322
REMARK  137  A    between atoms: _321  and  _324
REMARK  138  A    between atoms: _324  and  _325
REMARK  139  A    between atoms: _325  and  _448
REMARK  140  A    between atoms: _326  and  _328
REMARK  141  A    between atoms: _328  and  _329
REMARK  142  A    between atoms: _328  and  _331
REMARK  143  A    between atoms: _331  and  _332
REMARK  144  A    between atoms: _332  and  _333
REMARK  145  A    between atoms: _338  and  _340
REMARK  146  A    between atoms: _340  and  _341
REMARK  147  A    between atoms: _343  and  _345
REMARK  148  A    between atoms: _345  and  _346
REMARK  149  A    between atoms: _345  and  _348
REMARK  150  A    between atoms: _348  and  _349
REMARK  151  A    between atoms: _352  and  _354
REMARK  152  A    between atoms: _354  and  _355
REMARK  153  A    between atoms: _354  and  _357
REMARK  154  A    between atoms: _357  and  _358
REMARK  155  A    between atoms: _360  and  _362
REMARK  156  A    between atoms: _362  and  _363
REMARK  157  A    between atoms: _365  and  _367
REMARK  158  A    between atoms: _367  and  _368
REMARK  159  A    between atoms: _370  and  _372
REMARK  160  A    between atoms: _372  and  _373
REMARK  161  A    between atoms: _372  and  _375
REMARK  162  A    between atoms: _375  and  _376
REMARK  163  A    between atoms: _381  and  _383
REMARK  164  A    between atoms: _383  and  _384
REMARK  165  A    between atoms: _383  and  _386
REMARK  166  A    between atoms: _386  and  _387
REMARK  167  A    between atoms: _390  and  _392
REMARK  168  A    between atoms: _392  and  _393
REMARK  169  A    between atoms: _392  and  _395
REMARK  170  A    between atoms: _398  and  _400
REMARK  171  A    between atoms: _400  and  _401
REMARK  172  A    between atoms: _400  and  _403
REMARK  173  A    between atoms: _403  and  _404
REMARK  174  A    between atoms: _406  and  _408
REMARK  175  A    between atoms: _408  and  _409
REMARK  176  A    between atoms: _408  and  _411
REMARK  177  A    between atoms: _411  and  _412
REMARK  178  A    between atoms: _422  and  _424
REMARK  179  A    between atoms: _424  and  _425
REMARK  180  A    between atoms: _427  and  _429
REMARK  181  A    between atoms: _429  and  _430
REMARK  182  A    between atoms: _429  and  _432
REMARK  183  A    between atoms: _432  and  _433
REMARK  184  A    between atoms: _433  and  _434
REMARK  185  A    between atoms: _437  and  _439
REMARK  186  A    between atoms: _439  and  _440
REMARK  187  A    between atoms: _442  and  _444
REMARK  188  A    between atoms: _444  and  _445
REMARK  189  A    between atoms: _444  and  _447
REMARK  190  A    between atoms: _447  and  _448
REMARK  191  A    between atoms: _449  and  _451
REMARK  192  A    between atoms: _451  and  _452
REMARK  193  A    between atoms: _455  and  _457
REMARK  194  A    between atoms: _457  and  _458
REMARK  195  A    between atoms: _457  and  _460
REMARK  196  A    between atoms: _460  and  _461
REMARK  197  A    between atoms: _461  and  _462
REMARK  198  A    between atoms: _462  and  _463
REMARK  199  A    between atoms: _472  and  _474
REMARK  200  A    between atoms: _474  and  _475
REMARK  201  A    between atoms: _474  and  _477
REMARK  202  A    between atoms: _477  and  _478
REMARK  203  A    between atoms: _478  and  _479
REMARK  204  A    between atoms: _479  and  _480
REMARK  205  A    between atoms: _480  and  _481
REMARK  206  A    between atoms: _485  and  _487
REMARK  207  A    between atoms: _487  and  _488
REMARK  208  A    between atoms: _487  and  _490
REMARK  209  A    between atoms: _490  and  _491
REMARK  210  A    between atoms: _496  and  _497
REMARK  211  A    between atoms: _499  and  _501
REMARK  212  A    between atoms: _501  and  _502
REMARK  213  A    between atoms: _504  and  _506
REMARK  214  A    between atoms: _506  and  _507
REMARK  215  A    between atoms: _506  and  _509
REMARK  216  A    between atoms: _509  and  _510
REMARK  217  A    between atoms: _513  and  _515
REMARK  218  A    between atoms: _515  and  _516
REMARK  219  A    between atoms: _515  and  _518
REMARK  220  A    between atoms: _518  and  _519
REMARK  221  A    between atoms: _524  and  _525
REMARK  222  A    between atoms: _527  and  _529
REMARK  223  A    between atoms: _529  and  _530
REMARK  224  A    between atoms: _529  and  _532
REMARK  225  A    between atoms: _532  and  _533
REMARK                            x       y       z     vdW  Elec       q    Type
REMARK                         _______ _______ _______ _____ _____    ______ ____
ROOT
ATOM      1  O   HOH     1      20.905  11.316  35.878  0.00  0.00    +0.000 OA
ENDROOT
TORSDOF 0
REMARK  Name = ../refined-set-2016/2vvc/2vvc_pocket.pdb
REMARK  225 active torsions:
REMARK  status: ('A' for Active; 'I' for Inactive)
REMARK    1  A    between atoms: _1  and  _5
REMARK    2  A    between atoms: _5  and  _6
REMARK    3  A    between atoms: _5  and  _8
REMARK    4  A    between atoms: _8  and  _9
REMARK    5  A    between atoms: _12  and  _14
REMARK    6  A    between atoms: _14  and  _15
REMARK    7  A    between atoms: _14  and  _17
REMARK    8  A    between atoms: _20  and  _22
REMARK    9  A    between atoms: _22  and  _23
REMARK   10  A    between atoms: _22  and  _25
REMARK   11  A    between atoms: _25  and  _26
REMARK   12  A    between atoms: _31  and  _33
REMARK   13  A    between atoms: _33  and  _34
REMARK   14  A    between atoms: _33  and  _36
REMARK   15  A    between atoms: _36  and  _37
REMARK   16  A    between atoms: _37  and  _38
REMARK   17  A    between atoms: _43  and  _45
REMARK   18  A    between atoms: _45  and  _46
REMARK   19  A    between atoms: _45  and  _48
REMARK   20  A    between atoms: _48  and  _49
REMARK   21  A    between atoms: _55  and  _57
REMARK   22  A    between atoms: _57  and  _58
REMARK   23  A    between atoms: _57  and  _60
REMARK   24  A    between atoms: _60  and  _61
REMARK   25  A    between atoms: _64  and  _66
REMARK   26  A    between atoms: _66  and  _67
REMARK   27  A    between atoms: _66  and  _69
REMARK   28  A    between atoms: _69  and  _70
REMARK   29  A    between atoms: _70  and  _71
REMARK   30  A    between atoms: _71  and  _72
REMARK   31  A    between atoms: _72  and  _73
REMARK   32  A    between atoms: _77  and  _79
REMARK   33  A    between atoms: _79  and  _80
REMARK   34  A    between atoms: _79  and  _82
REMARK   35  A    between atoms: _82  and  _83
REMARK   36  A    between atoms: _83  and  _84
REMARK   37  A    between atoms: _87  and  _89
REMARK   38  A    between atoms: _89  and  _90
REMARK   39  A    between atoms: _89  and  _92
REMARK   40  A    between atoms: _92  and  _93
REMARK   41  A    between atoms: _96  and  _98
REMARK   42  A    between atoms: _98  and  _99
REMARK   43  A    between atoms: _98  and  _101
REMARK   44  A    between atoms: _101  and  _102
REMARK   45  A    between atoms: _107  and  _108
REMARK   46  A    between atoms: _110  and  _112
REMARK   47  A    between atoms: _112  and  _113
REMARK   48  A    between atoms: _112  and  _115
REMARK   49  A    between atoms: _115  and  _116
REMARK   50  A    between atoms: _119  and  _121
REMARK   51  A    between atoms: _121  and  _122
REMARK   52  A    between atoms: _121  and  _124
REMARK   53  A    between atoms: _124  and  _125
REMARK   54  A    between atoms: _128  and  _130
REMARK   55  A    between atoms: _130  and  _131
REMARK   56  A    between atoms: _130  and  _133
REMARK   57  A    between atoms: _136  and  _138
REMARK   58  A    between atoms: _138  and  _139
REMARK   59  A    between atoms: _138  and  _141
REMARK   60  A    between atoms: _141  and  _142
REMARK   61  A    between atoms: _142  and  _143
REMARK   62  A    between atoms: _143  and  _144
REMARK   63  A    between atoms: _153  and  _155
REMARK   64  A    between atoms: _155  and  _156
REMARK   65  A    between atoms: _155  and  _158
REMARK   66  A    between atoms: _158  and  _159
REMARK   67  A    between atoms: _164  and  _166
REMARK   68  A    between atoms: _166  and  _167
REMARK   69  A    between atoms: _166  and  _169
REMARK   70  A    between atoms: _169  and  _170
REMARK   71  A    between atoms: _170  and  _171
REMARK   72  A    between atoms: _174  and  _176
REMARK   73  A    between atoms: _176  and  _177
REMARK   74  A    between atoms: _176  and  _179
REMARK   75  A    between atoms: _179  and  _180
REMARK   76  A    between atoms: _180  and  _181
REMARK   77  A    between atoms: _181  and  _182
REMARK   78  A    between atoms: _182  and  _183
REMARK   79  A    between atoms: _187  and  _189
REMARK   80  A    between atoms: _189  and  _190
REMARK   81  A    between atoms: _192  and  _194
REMARK   82  A    between atoms: _194  and  _195
REMARK   83  A    between atoms: _194  and  _197
REMARK   84  A    between atoms: _200  and  _202
REMARK   85  A    between atoms: _202  and  _203
REMARK   86  A    between atoms: _202  and  _205
REMARK   87  A    between atoms: _205  and  _206
REMARK   88  A    between atoms: _208  and  _210
REMARK   89  A    between atoms: _210  and  _211
REMARK   90  A    between atoms: _210  and  _213
REMARK   91  A    between atoms: _213  and  _214
REMARK   92  A    between atoms: _216  and  _218
REMARK   93  A    between atoms: _218  and  _219
REMARK   94  A    between atoms: _218  and  _221
REMARK   95  A    between atoms: _221  and  _222
REMARK   96  A    between atoms: _228  and  _230
REMARK   97  A    between atoms: _230  and  _231
REMARK   98  A    between atoms: _230  and  _233
REMARK   99  A    between atoms: _233  and  _234
REMARK  100  A    between atoms: _237  and  _239
REMARK  101  A    between atoms: _239  and  _240
REMARK  102  A    between atoms: _239  and  _242
REMARK  103  A    between atoms: _242  and  _243
REMARK  104  A    between atoms: _246  and  _248
REMARK  105  A    between atoms: _248  and  _249
REMARK  106  A    between atoms: _248  and  _251
REMARK  107  A    between atoms: _251  and  _252
REMARK  108  A    between atoms: _255  and  _257
REMARK  109  A    between atoms: _257  and  _258
REMARK  110  A    between atoms: _257  and  _260
REMARK  111  A    between atoms: _260  and  _261
REMARK  112  A    between atoms: _261  and  _262
REMARK  113  A    between atoms: _264  and  _266
REMARK  114  A    between atoms: _266  and  _267
REMARK  115  A    between atoms: _266  and  _269
REMARK  116  A    between atoms: _269  and  _270
REMARK  117  A    between atoms: _276  and  _278
REMARK  118  A    between atoms: _278  and  _279
REMARK  119  A    between atoms: _278  and  _281
REMARK  120  A    between atoms: _283  and  _285
REMARK  121  A    between atoms: _285  and  _286
REMARK  122  A    between atoms: _289  and  _291
REMARK  123  A    between atoms: _291  and  _292
REMARK  124  A    between atoms: _294  and  _296
REMARK  125  A    between atoms: _296  and  _297
REMARK  126  A    between atoms: _296  and  _299
REMARK  127  A    between atoms: _299  and  _300
REMARK  128  A    between atoms: _300  and  _301
REMARK  129  A    between atoms: _304  and  _306
REMARK  130  A    between atoms: _306  and  _307
REMARK  131  A    between atoms: _306  and  _309
REMARK  132  A    between atoms: _309  and  _310
REMARK  133  A    between atoms: _313  and  _315
REMARK  134  A    between atoms: _315  and  _316
REMARK  135  A    between atoms: _319  and  _321
REMARK  136  A    between atoms: _321  and  _322
REMARK  137  A    between atoms: _321  and  _324
REMARK  138  A    between atoms: _324  and  _325
REMARK  139  A    between atoms: _325  and  _448
REMARK  140  A    between atoms: _326  and  _328
REMARK  141  A    between atoms: _328  and  _329
REMARK  142  A    between atoms: _328  and  _331
REMARK  143  A    between atoms: _331  and  _332
REMARK  144  A    between atoms: _332  and  _333
REMARK  145  A    between atoms: _338  and  _340
REMARK  146  A    between atoms: _340  and  _341
REMARK  147  A    between atoms: _343  and  _345
REMARK  148  A    between atoms: _345  and  _346
REMARK  149  A    between atoms: _345  and  _348
REMARK  150  A    between atoms: _348  and  _349
REMARK  151  A    between atoms: _352  and  _354
REMARK  152  A    between atoms: _354  and  _355
REMARK  153  A    between atoms: _354  and  _357
REMARK  154  A    between atoms: _357  and  _358
REMARK  155  A    between atoms: _360  and  _362
REMARK  156  A    between atoms: _362  and  _363
REMARK  157  A    between atoms: _365  and  _367
REMARK  158  A    between atoms: _367  and  _368
REMARK  159  A    between atoms: _370  and  _372
REMARK  160  A    between atoms: _372  and  _373
REMARK  161  A    between atoms: _372  and  _375
REMARK  162  A    between atoms: _375  and  _376
REMARK  163  A    between atoms: _381  and  _383
REMARK  164  A    between atoms: _383  and  _384
REMARK  165  A    between atoms: _383  and  _386
REMARK  166  A    between atoms: _386  and  _387
REMARK  167  A    between atoms: _390  and  _392
REMARK  168  A    between atoms: _392  and  _393
REMARK  169  A    between atoms: _392  and  _395
REMARK  170  A    between atoms: _398  and  _400
REMARK  171  A    between atoms: _400  and  _401
REMARK  172  A    between atoms: _400  and  _403
REMARK  173  A    between atoms: _403  and  _404
REMARK  174  A    between atoms: _406  and  _408
REMARK  175  A    between atoms: _408  and  _409
REMARK  176  A    between atoms: _408  and  _411
REMARK  177  A    between atoms: _411  and  _412
REMARK  178  A    between atoms: _422  and  _424
REMARK  179  A    between atoms: _424  and  _425
REMARK  180  A    between atoms: _427  and  _429
REMARK  181  A    between atoms: _429  and  _430
REMARK  182  A    between atoms: _429  and  _432
REMARK  183  A    between atoms: _432  and  _433
REMARK  184  A    between atoms: _433  and  _434
REMARK  185  A    between atoms: _437  and  _439
REMARK  186  A    between atoms: _439  and  _440
REMARK  187  A    between atoms: _442  and  _444
REMARK  188  A    between atoms: _444  and  _445
REMARK  189  A    between atoms: _444  and  _447
REMARK  190  A    between atoms: _447  and  _448
REMARK  191  A    between atoms: _449  and  _451
REMARK  192  A    between atoms: _451  and  _452
REMARK  193  A    between atoms: _455  and  _457
REMARK  194  A    between atoms: _457  and  _458
REMARK  195  A    between atoms: _457  and  _460
REMARK  196  A    between atoms: _460  and  _461
REMARK  197  A    between atoms: _461  and  _462
REMARK  198  A    between atoms: _462  and  _463
REMARK  199  A    between atoms: _472  and  _474
REMARK  200  A    between atoms: _474  and  _475
REMARK  201  A    between atoms: _474  and  _477
REMARK  202  A    between atoms: _477  and  _478
REMARK  203  A    between atoms: _478  and  _479
REMARK  204  A    between atoms: _479  and  _480
REMARK  205  A    between atoms: _480  and  _481
REMARK  206  A    between atoms: _485  and  _487
REMARK  207  A    between atoms: _487  and  _488
REMARK  208  A    between atoms: _487  and  _490
REMARK  209  A    between atoms: _490  and  _491
REMARK  210  A    between atoms: _496  and  _497
REMARK  211  A    between atoms: _499  and  _501
REMARK  212  A    between atoms: _501  and  _502
REMARK  213  A    between atoms: _504  and  _506
REMARK  214  A    between atoms: _506  and  _507
REMARK  215  A    between atoms: _506  and  _509
REMARK  216  A    between atoms: _509  and  _510
REMARK  217  A    between atoms: _513  and  _515
REMARK  218  A    between atoms: _515  and  _516
REMARK  219  A    between atoms: _515  and  _518
REMARK  220  A    between atoms: _518  and  _519
REMARK  221  A    between atoms: _524  and  _525
REMARK  222  A    between atoms: _527  and  _529
REMARK  223  A    between atoms: _529  and  _530
REMARK  224  A    between atoms: _529  and  _532
REMARK  225  A    between atoms: _532  and  _533
REMARK                            x       y       z     vdW  Elec       q    Type
REMARK                         _______ _______ _______ _____ _____    ______ ____
ROOT
ATOM      1  O   HOH     1      15.545  -6.842  32.201  0.00  0.00    +0.000 OA
ENDROOT
TORSDOF 0
REMARK  Name = ../refined-set-2016/2vvc/2vvc_pocket.pdb
REMARK  225 active torsions:
REMARK  status: ('A' for Active; 'I' for Inactive)
REMARK    1  A    between atoms: _1  and  _5
REMARK    2  A    between atoms: _5  and  _6
REMARK    3  A    between atoms: _5  and  _8
REMARK    4  A    between atoms: _8  and  _9
REMARK    5  A    between atoms: _12  and  _14
REMARK    6  A    between atoms: _14  and  _15
REMARK    7  A    between atoms: _14  and  _17
REMARK    8  A    between atoms: _20  and  _22
REMARK    9  A    between atoms: _22  and  _23
REMARK   10  A    between atoms: _22  and  _25
REMARK   11  A    between atoms: _25  and  _26
REMARK   12  A    between atoms: _31  and  _33
REMARK   13  A    between atoms: _33  and  _34
REMARK   14  A    between atoms: _33  and  _36
REMARK   15  A    between atoms: _36  and  _37
REMARK   16  A    between atoms: _37  and  _38
REMARK   17  A    between atoms: _43  and  _45
REMARK   18  A    between atoms: _45  and  _46
REMARK   19  A    between atoms: _45  and  _48
REMARK   20  A    between atoms: _48  and  _49
REMARK   21  A    between atoms: _55  and  _57
REMARK   22  A    between atoms: _57  and  _58
REMARK   23  A    between atoms: _57  and  _60
REMARK   24  A    between atoms: _60  and  _61
REMARK   25  A    between atoms: _64  and  _66
REMARK   26  A    between atoms: _66  and  _67
REMARK   27  A    between atoms: _66  and  _69
REMARK   28  A    between atoms: _69  and  _70
REMARK   29  A    between atoms: _70  and  _71
REMARK   30  A    between atoms: _71  and  _72
REMARK   31  A    between atoms: _72  and  _73
REMARK   32  A    between atoms: _77  and  _79
REMARK   33  A    between atoms: _79  and  _80
REMARK   34  A    between atoms: _79  and  _82
REMARK   35  A    between atoms: _82  and  _83
REMARK   36  A    between atoms: _83  and  _84
REMARK   37  A    between atoms: _87  and  _89
REMARK   38  A    between atoms: _89  and  _90
REMARK   39  A    between atoms: _89  and  _92
REMARK   40  A    between atoms: _92  and  _93
REMARK   41  A    between atoms: _96  and  _98
REMARK   42  A    between atoms: _98  and  _99
REMARK   43  A    between atoms: _98  and  _101
REMARK   44  A    between atoms: _101  and  _102
REMARK   45  A    between atoms: _107  and  _108
REMARK   46  A    between atoms: _110  and  _112
REMARK   47  A    between atoms: _112  and  _113
REMARK   48  A    between atoms: _112  and  _115
REMARK   49  A    between atoms: _115  and  _116
REMARK   50  A    between atoms: _119  and  _121
REMARK   51  A    between atoms: _121  and  _122
REMARK   52  A    between atoms: _121  and  _124
REMARK   53  A    between atoms: _124  and  _125
REMARK   54  A    between atoms: _128  and  _130
REMARK   55  A    between atoms: _130  and  _131
REMARK   56  A    between atoms: _130  and  _133
REMARK   57  A    between atoms: _136  and  _138
REMARK   58  A    between atoms: _138  and  _139
REMARK   59  A    between atoms: _138  and  _141
REMARK   60  A    between atoms: _141  and  _142
REMARK   61  A    between atoms: _142  and  _143
REMARK   62  A    between atoms: _143  and  _144
REMARK   63  A    between atoms: _153  and  _155
REMARK   64  A    between atoms: _155  and  _156
REMARK   65  A    between atoms: _155  and  _158
REMARK   66  A    between atoms: _158  and  _159
REMARK   67  A    between atoms: _164  and  _166
REMARK   68  A    between atoms: _166  and  _167
REMARK   69  A    between atoms: _166  and  _169
REMARK   70  A    between atoms: _169  and  _170
REMARK   71  A    between atoms: _170  and  _171
REMARK   72  A    between atoms: _174  and  _176
REMARK   73  A    between atoms: _176  and  _177
REMARK   74  A    between atoms: _176  and  _179
REMARK   75  A    between atoms: _179  and  _180
REMARK   76  A    between atoms: _180  and  _181
REMARK   77  A    between atoms: _181  and  _182
REMARK   78  A    between atoms: _182  and  _183
REMARK   79  A    between atoms: _187  and  _189
REMARK   80  A    between atoms: _189  and  _190
REMARK   81  A    between atoms: _192  and  _194
REMARK   82  A    between atoms: _194  and  _195
REMARK   83  A    between atoms: _194  and  _197
REMARK   84  A    between atoms: _200  and  _202
REMARK   85  A    between atoms: _202  and  _203
REMARK   86  A    between atoms: _202  and  _205
REMARK   87  A    between atoms: _205  and  _206
REMARK   88  A    between atoms: _208  and  _210
REMARK   89  A    between atoms: _210  and  _211
REMARK   90  A    between atoms: _210  and  _213
REMARK   91  A    between atoms: _213  and  _214
REMARK   92  A    between atoms: _216  and  _218
REMARK   93  A    between atoms: _218  and  _219
REMARK   94  A    between atoms: _218  and  _221
REMARK   95  A    between atoms: _221  and  _222
REMARK   96  A    between atoms: _228  and  _230
REMARK   97  A    between atoms: _230  and  _231
REMARK   98  A    between atoms: _230  and  _233
REMARK   99  A    between atoms: _233  and  _234
REMARK  100  A    between atoms: _237  and  _239
REMARK  101  A    between atoms: _239  and  _240
REMARK  102  A    between atoms: _239  and  _242
REMARK  103  A    between atoms: _242  and  _243
REMARK  104  A    between atoms: _246  and  _248
REMARK  105  A    between atoms: _248  and  _249
REMARK  106  A    between atoms: _248  and  _251
REMARK  107  A    between atoms: _251  and  _252
REMARK  108  A    between atoms: _255  and  _257
REMARK  109  A    between atoms: _257  and  _258
REMARK  110  A    between atoms: _257  and  _260
REMARK  111  A    between atoms: _260  and  _261
REMARK  112  A    between atoms: _261  and  _262
REMARK  113  A    between atoms: _264  and  _266
REMARK  114  A    between atoms: _266  and  _267
REMARK  115  A    between atoms: _266  and  _269
REMARK  116  A    between atoms: _269  and  _270
REMARK  117  A    between atoms: _276  and  _278
REMARK  118  A    between atoms: _278  and  _279
REMARK  119  A    between atoms: _278  and  _281
REMARK  120  A    between atoms: _283  and  _285
REMARK  121  A    between atoms: _285  and  _286
REMARK  122  A    between atoms: _289  and  _291
REMARK  123  A    between atoms: _291  and  _292
REMARK  124  A    between atoms: _294  and  _296
REMARK  125  A    between atoms: _296  and  _297
REMARK  126  A    between atoms: _296  and  _299
REMARK  127  A    between atoms: _299  and  _300
REMARK  128  A    between atoms: _300  and  _301
REMARK  129  A    between atoms: _304  and  _306
REMARK  130  A    between atoms: _306  and  _307
REMARK  131  A    between atoms: _306  and  _309
REMARK  132  A    between atoms: _309  and  _310
REMARK  133  A    between atoms: _313  and  _315
REMARK  134  A    between atoms: _315  and  _316
REMARK  135  A    between atoms: _319  and  _321
REMARK  136  A    between atoms: _321  and  _322
REMARK  137  A    between atoms: _321  and  _324
REMARK  138  A    between atoms: _324  and  _325
REMARK  139  A    between atoms: _325  and  _448
REMARK  140  A    between atoms: _326  and  _328
REMARK  141  A    between atoms: _328  and  _329
REMARK  142  A    between atoms: _328  and  _331
REMARK  143  A    between atoms: _331  and  _332
REMARK  144  A    between atoms: _332  and  _333
REMARK  145  A    between atoms: _338  and  _340
REMARK  146  A    between atoms: _340  and  _341
REMARK  147  A    between atoms: _343  and  _345
REMARK  148  A    between atoms: _345  and  _346
REMARK  149  A    between atoms: _345  and  _348
REMARK  150  A    between atoms: _348  and  _349
REMARK  151  A    between atoms: _352  and  _354
REMARK  152  A    between atoms: _354  and  _355
REMARK  153  A    between atoms: _354  and  _357
REMARK  154  A    between atoms: _357  and  _358
REMARK  155  A    between atoms: _360  and  _362
REMARK  156  A    between atoms: _362  and  _363
REMARK  157  A    between atoms: _365  and  _367
REMARK  158  A    between atoms: _367  and  _368
REMARK  159  A    between atoms: _370  and  _372
REMARK  160  A    between atoms: _372  and  _373
REMARK  161  A    between atoms: _372  and  _375
REMARK  162  A    between atoms: _375  and  _376
REMARK  163  A    between atoms: _381  and  _383
REMARK  164  A    between atoms: _383  and  _384
REMARK  165  A    between atoms: _383  and  _386
REMARK  166  A    between atoms: _386  and  _387
REMARK  167  A    between atoms: _390  and  _392
REMARK  168  A    between atoms: _392  and  _393
REMARK  169  A    between atoms: _392  and  _395
REMARK  170  A    between atoms: _398  and  _400
REMARK  171  A    between atoms: _400  and  _401
REMARK  172  A    between atoms: _400  and  _403
REMARK  173  A    between atoms: _403  and  _404
REMARK  174  A    between atoms: _406  and  _408
REMARK  175  A    between atoms: _408  and  _409
REMARK  176  A    between atoms: _408  and  _411
REMARK  177  A    between atoms: _411  and  _412
REMARK  178  A    between atoms: _422  and  _424
REMARK  179  A    between atoms: _424  and  _425
REMARK  180  A    between atoms: _427  and  _429
REMARK  181  A    between atoms: _429  and  _430
REMARK  182  A    between atoms: _429  and  _432
REMARK  183  A    between atoms: _432  and  _433
REMARK  184  A    between atoms: _433  and  _434
REMARK  185  A    between atoms: _437  and  _439
REMARK  186  A    between atoms: _439  and  _440
REMARK  187  A    between atoms: _442  and  _444
REMARK  188  A    between atoms: _444  and  _445
REMARK  189  A    between atoms: _444  and  _447
REMARK  190  A    between atoms: _447  and  _448
REMARK  191  A    between atoms: _449  and  _451
REMARK  192  A    between atoms: _451  and  _452
REMARK  193  A    between atoms: _455  and  _457
REMARK  194  A    between atoms: _457  and  _458
REMARK  195  A    between atoms: _457  and  _460
REMARK  196  A    between atoms: _460  and  _461
REMARK  197  A    between atoms: _461  and  _462
REMARK  198  A    between atoms: _462  and  _463
REMARK  199  A    between atoms: _472  and  _474
REMARK  200  A    between atoms: _474  and  _475
REMARK  201  A    between atoms: _474  and  _477
REMARK  202  A    between atoms: _477  and  _478
REMARK  203  A    between atoms: _478  and  _479
REMARK  204  A    between atoms: _479  and  _480
REMARK  205  A    between atoms: _480  and  _481
REMARK  206  A    between atoms: _485  and  _487
REMARK  207  A    between atoms: _487  and  _488
REMARK  208  A    between atoms: _487  and  _490
REMARK  209  A    between atoms: _490  and  _491
REMARK  210  A    between atoms: _496  and  _497
REMARK  211  A    between atoms: _499  and  _501
REMARK  212  A    between atoms: _501  and  _502
REMARK  213  A    between atoms: _504  and  _506
REMARK  214  A    between atoms: _506  and  _507
REMARK  215  A    between atoms: _506  and  _509
REMARK  216  A    between atoms: _509  and  _510
REMARK  217  A    between atoms: _513  and  _515
REMARK  218  A    between atoms: _515  and  _516
REMARK  219  A    between atoms: _515  and  _518
REMARK  220  A    between atoms: _518  and  _519
REMARK  221  A    between atoms: _524  and  _525
REMARK  222  A    between atoms: _527  and  _529
REMARK  223  A    between atoms: _529  and  _530
REMARK  224  A    between atoms: _529  and  _532
REMARK  225  A    between atoms: _532  and  _533
REMARK                            x       y       z     vdW  Elec       q    Type
REMARK                         _______ _______ _______ _____ _____    ______ ____
ROOT
ATOM      1  O   HOH     1      17.097  -4.577  30.904  0.00  0.00    +0.000 OA
ENDROOT
TORSDOF 0
REMARK  Name = ../refined-set-2016/2vvc/2vvc_pocket.pdb
REMARK  225 active torsions:
REMARK  status: ('A' for Active; 'I' for Inactive)
REMARK    1  A    between atoms: _1  and  _5
REMARK    2  A    between atoms: _5  and  _6
REMARK    3  A    between atoms: _5  and  _8
REMARK    4  A    between atoms: _8  and  _9
REMARK    5  A    between atoms: _12  and  _14
REMARK    6  A    between atoms: _14  and  _15
REMARK    7  A    between atoms: _14  and  _17
REMARK    8  A    between atoms: _20  and  _22
REMARK    9  A    between atoms: _22  and  _23
REMARK   10  A    between atoms: _22  and  _25
REMARK   11  A    between atoms: _25  and  _26
REMARK   12  A    between atoms: _31  and  _33
REMARK   13  A    between atoms: _33  and  _34
REMARK   14  A    between atoms: _33  and  _36
REMARK   15  A    between atoms: _36  and  _37
REMARK   16  A    between atoms: _37  and  _38
REMARK   17  A    between atoms: _43  and  _45
REMARK   18  A    between atoms: _45  and  _46
REMARK   19  A    between atoms: _45  and  _48
REMARK   20  A    between atoms: _48  and  _49
REMARK   21  A    between atoms: _55  and  _57
REMARK   22  A    between atoms: _57  and  _58
REMARK   23  A    between atoms: _57  and  _60
REMARK   24  A    between atoms: _60  and  _61
REMARK   25  A    between atoms: _64  and  _66
REMARK   26  A    between atoms: _66  and  _67
REMARK   27  A    between atoms: _66  and  _69
REMARK   28  A    between atoms: _69  and  _70
REMARK   29  A    between atoms: _70  and  _71
REMARK   30  A    between atoms: _71  and  _72
REMARK   31  A    between atoms: _72  and  _73
REMARK   32  A    between atoms: _77  and  _79
REMARK   33  A    between atoms: _79  and  _80
REMARK   34  A    between atoms: _79  and  _82
REMARK   35  A    between atoms: _82  and  _83
REMARK   36  A    between atoms: _83  and  _84
REMARK   37  A    between atoms: _87  and  _89
REMARK   38  A    between atoms: _89  and  _90
REMARK   39  A    between atoms: _89  and  _92
REMARK   40  A    between atoms: _92  and  _93
REMARK   41  A    between atoms: _96  and  _98
REMARK   42  A    between atoms: _98  and  _99
REMARK   43  A    between atoms: _98  and  _101
REMARK   44  A    between atoms: _101  and  _102
REMARK   45  A    between atoms: _107  and  _108
REMARK   46  A    between atoms: _110  and  _112
REMARK   47  A    between atoms: _112  and  _113
REMARK   48  A    between atoms: _112  and  _115
REMARK   49  A    between atoms: _115  and  _116
REMARK   50  A    between atoms: _119  and  _121
REMARK   51  A    between atoms: _121  and  _122
REMARK   52  A    between atoms: _121  and  _124
REMARK   53  A    between atoms: _124  and  _125
REMARK   54  A    between atoms: _128  and  _130
REMARK   55  A    between atoms: _130  and  _131
REMARK   56  A    between atoms: _130  and  _133
REMARK   57  A    between atoms: _136  and  _138
REMARK   58  A    between atoms: _138  and  _139
REMARK   59  A    between atoms: _138  and  _141
REMARK   60  A    between atoms: _141  and  _142
REMARK   61  A    between atoms: _142  and  _143
REMARK   62  A    between atoms: _143  and  _144
REMARK   63  A    between atoms: _153  and  _155
REMARK   64  A    between atoms: _155  and  _156
REMARK   65  A    between atoms: _155  and  _158
REMARK   66  A    between atoms: _158  and  _159
REMARK   67  A    between atoms: _164  and  _166
REMARK   68  A    between atoms: _166  and  _167
REMARK   69  A    between atoms: _166  and  _169
REMARK   70  A    between atoms: _169  and  _170
REMARK   71  A    between atoms: _170  and  _171
REMARK   72  A    between atoms: _174  and  _176
REMARK   73  A    between atoms: _176  and  _177
REMARK   74  A    between atoms: _176  and  _179
REMARK   75  A    between atoms: _179  and  _180
REMARK   76  A    between atoms: _180  and  _181
REMARK   77  A    between atoms: _181  and  _182
REMARK   78  A    between atoms: _182  and  _183
REMARK   79  A    between atoms: _187  and  _189
REMARK   80  A    between atoms: _189  and  _190
REMARK   81  A    between atoms: _192  and  _194
REMARK   82  A    between atoms: _194  and  _195
REMARK   83  A    between atoms: _194  and  _197
REMARK   84  A    between atoms: _200  and  _202
REMARK   85  A    between atoms: _202  and  _203
REMARK   86  A    between atoms: _202  and  _205
REMARK   87  A    between atoms: _205  and  _206
REMARK   88  A    between atoms: _208  and  _210
REMARK   89  A    between atoms: _210  and  _211
REMARK   90  A    between atoms: _210  and  _213
REMARK   91  A    between atoms: _213  and  _214
REMARK   92  A    between atoms: _216  and  _218
REMARK   93  A    between atoms: _218  and  _219
REMARK   94  A    between atoms: _218  and  _221
REMARK   95  A    between atoms: _221  and  _222
REMARK   96  A    between atoms: _228  and  _230
REMARK   97  A    between atoms: _230  and  _231
REMARK   98  A    between atoms: _230  and  _233
REMARK   99  A    between atoms: _233  and  _234
REMARK  100  A    between atoms: _237  and  _239
REMARK  101  A    between atoms: _239  and  _240
REMARK  102  A    between atoms: _239  and  _242
REMARK  103  A    between atoms: _242  and  _243
REMARK  104  A    between atoms: _246  and  _248
REMARK  105  A    between atoms: _248  and  _249
REMARK  106  A    between atoms: _248  and  _251
REMARK  107  A    between atoms: _251  and  _252
REMARK  108  A    between atoms: _255  and  _257
REMARK  109  A    between atoms: _257  and  _258
REMARK  110  A    between atoms: _257  and  _260
REMARK  111  A    between atoms: _260  and  _261
REMARK  112  A    between atoms: _261  and  _262
REMARK  113  A    between atoms: _264  and  _266
REMARK  114  A    between atoms: _266  and  _267
REMARK  115  A    between atoms: _266  and  _269
REMARK  116  A    between atoms: _269  and  _270
REMARK  117  A    between atoms: _276  and  _278
REMARK  118  A    between atoms: _278  and  _279
REMARK  119  A    between atoms: _278  and  _281
REMARK  120  A    between atoms: _283  and  _285
REMARK  121  A    between atoms: _285  and  _286
REMARK  122  A    between atoms: _289  and  _291
REMARK  123  A    between atoms: _291  and  _292
REMARK  124  A    between atoms: _294  and  _296
REMARK  125  A    between atoms: _296  and  _297
REMARK  126  A    between atoms: _296  and  _299
REMARK  127  A    between atoms: _299  and  _300
REMARK  128  A    between atoms: _300  and  _301
REMARK  129  A    between atoms: _304  and  _306
REMARK  130  A    between atoms: _306  and  _307
REMARK  131  A    between atoms: _306  and  _309
REMARK  132  A    between atoms: _309  and  _310
REMARK  133  A    between atoms: _313  and  _315
REMARK  134  A    between atoms: _315  and  _316
REMARK  135  A    between atoms: _319  and  _321
REMARK  136  A    between atoms: _321  and  _322
REMARK  137  A    between atoms: _321  and  _324
REMARK  138  A    between atoms: _324  and  _325
REMARK  139  A    between atoms: _325  and  _448
REMARK  140  A    between atoms: _326  and  _328
REMARK  141  A    between atoms: _328  and  _329
REMARK  142  A    between atoms: _328  and  _331
REMARK  143  A    between atoms: _331  and  _332
REMARK  144  A    between atoms: _332  and  _333
REMARK  145  A    between atoms: _338  and  _340
REMARK  146  A    between atoms: _340  and  _341
REMARK  147  A    between atoms: _343  and  _345
REMARK  148  A    between atoms: _345  and  _346
REMARK  149  A    between atoms: _345  and  _348
REMARK  150  A    between atoms: _348  and  _349
REMARK  151  A    between atoms: _352  and  _354
REMARK  152  A    between atoms: _354  and  _355
REMARK  153  A    between atoms: _354  and  _357
REMARK  154  A    between atoms: _357  and  _358
REMARK  155  A    between atoms: _360  and  _362
REMARK  156  A    between atoms: _362  and  _363
REMARK  157  A    between atoms: _365  and  _367
REMARK  158  A    between atoms: _367  and  _368
REMARK  159  A    between atoms: _370  and  _372
REMARK  160  A    between atoms: _372  and  _373
REMARK  161  A    between atoms: _372  and  _375
REMARK  162  A    between atoms: _375  and  _376
REMARK  163  A    between atoms: _381  and  _383
REMARK  164  A    between atoms: _383  and  _384
REMARK  165  A    between atoms: _383  and  _386
REMARK  166  A    between atoms: _386  and  _387
REMARK  167  A    between atoms: _390  and  _392
REMARK  168  A    between atoms: _392  and  _393
REMARK  169  A    between atoms: _392  and  _395
REMARK  170  A    between atoms: _398  and  _400
REMARK  171  A    between atoms: _400  and  _401
REMARK  172  A    between atoms: _400  and  _403
REMARK  173  A    between atoms: _403  and  _404
REMARK  174  A    between atoms: _406  and  _408
REMARK  175  A    between atoms: _408  and  _409
REMARK  176  A    between atoms: _408  and  _411
REMARK  177  A    between atoms: _411  and  _412
REMARK  178  A    between atoms: _422  and  _424
REMARK  179  A    between atoms: _424  and  _425
REMARK  180  A    between atoms: _427  and  _429
REMARK  181  A    between atoms: _429  and  _430
REMARK  182  A    between atoms: _429  and  _432
REMARK  183  A    between atoms: _432  and  _433
REMARK  184  A    between atoms: _433  and  _434
REMARK  185  A    between atoms: _437  and  _439
REMARK  186  A    between atoms: _439  and  _440
REMARK  187  A    between atoms: _442  and  _444
REMARK  188  A    between atoms: _444  and  _445
REMARK  189  A    between atoms: _444  and  _447
REMARK  190  A    between atoms: _447  and  _448
REMARK  191  A    between atoms: _449  and  _451
REMARK  192  A    between atoms: _451  and  _452
REMARK  193  A    between atoms: _455  and  _457
REMARK  194  A    between atoms: _457  and  _458
REMARK  195  A    between atoms: _457  and  _460
REMARK  196  A    between atoms: _460  and  _461
REMARK  197  A    between atoms: _461  and  _462
REMARK  198  A    between atoms: _462  and  _463
REMARK  199  A    between atoms: _472  and  _474
REMARK  200  A    between atoms: _474  and  _475
REMARK  201  A    between atoms: _474  and  _477
REMARK  202  A    between atoms: _477  and  _478
REMARK  203  A    between atoms: _478  and  _479
REMARK  204  A    between atoms: _479  and  _480
REMARK  205  A    between atoms: _480  and  _481
REMARK  206  A    between atoms: _485  and  _487
REMARK  207  A    between atoms: _487  and  _488
REMARK  208  A    between atoms: _487  and  _490
REMARK  209  A    between atoms: _490  and  _491
REMARK  210  A    between atoms: _496  and  _497
REMARK  211  A    between atoms: _499  and  _501
REMARK  212  A    between atoms: _501  and  _502
REMARK  213  A    between atoms: _504  and  _506
REMARK  214  A    between atoms: _506  and  _507
REMARK  215  A    between atoms: _506  and  _509
REMARK  216  A    between atoms: _509  and  _510
REMARK  217  A    between atoms: _513  and  _515
REMARK  218  A    between atoms: _515  and  _516
REMARK  219  A    between atoms: _515  and  _518
REMARK  220  A    between atoms: _518  and  _519
REMARK  221  A    between atoms: _524  and  _525
REMARK  222  A    between atoms: _527  and  _529
REMARK  223  A    between atoms: _529  and  _530
REMARK  224  A    between atoms: _529  and  _532
REMARK  225  A    between atoms: _532  and  _533
REMARK                            x       y       z     vdW  Elec       q    Type
REMARK                         _______ _______ _______ _____ _____    ______ ____
ROOT
ATOM      1  O   HOH     1      11.978  -4.445  32.833  0.00  0.00    +0.000 OA
ENDROOT
TORSDOF 0
REMARK  Name = ../refined-set-2016/2vvc/2vvc_pocket.pdb
REMARK  225 active torsions:
REMARK  status: ('A' for Active; 'I' for Inactive)
REMARK    1  A    between atoms: _1  and  _5
REMARK    2  A    between atoms: _5  and  _6
REMARK    3  A    between atoms: _5  and  _8
REMARK    4  A    between atoms: _8  and  _9
REMARK    5  A    between atoms: _12  and  _14
REMARK    6  A    between atoms: _14  and  _15
REMARK    7  A    between atoms: _14  and  _17
REMARK    8  A    between atoms: _20  and  _22
REMARK    9  A    between atoms: _22  and  _23
REMARK   10  A    between atoms: _22  and  _25
REMARK   11  A    between atoms: _25  and  _26
REMARK   12  A    between atoms: _31  and  _33
REMARK   13  A    between atoms: _33  and  _34
REMARK   14  A    between atoms: _33  and  _36
REMARK   15  A    between atoms: _36  and  _37
REMARK   16  A    between atoms: _37  and  _38
REMARK   17  A    between atoms: _43  and  _45
REMARK   18  A    between atoms: _45  and  _46
REMARK   19  A    between atoms: _45  and  _48
REMARK   20  A    between atoms: _48  and  _49
REMARK   21  A    between atoms: _55  and  _57
REMARK   22  A    between atoms: _57  and  _58
REMARK   23  A    between atoms: _57  and  _60
REMARK   24  A    between atoms: _60  and  _61
REMARK   25  A    between atoms: _64  and  _66
REMARK   26  A    between atoms: _66  and  _67
REMARK   27  A    between atoms: _66  and  _69
REMARK   28  A    between atoms: _69  and  _70
REMARK   29  A    between atoms: _70  and  _71
REMARK   30  A    between atoms: _71  and  _72
REMARK   31  A    between atoms: _72  and  _73
REMARK   32  A    between atoms: _77  and  _79
REMARK   33  A    between atoms: _79  and  _80
REMARK   34  A    between atoms: _79  and  _82
REMARK   35  A    between atoms: _82  and  _83
REMARK   36  A    between atoms: _83  and  _84
REMARK   37  A    between atoms: _87  and  _89
REMARK   38  A    between atoms: _89  and  _90
REMARK   39  A    between atoms: _89  and  _92
REMARK   40  A    between atoms: _92  and  _93
REMARK   41  A    between atoms: _96  and  _98
REMARK   42  A    between atoms: _98  and  _99
REMARK   43  A    between atoms: _98  and  _101
REMARK   44  A    between atoms: _101  and  _102
REMARK   45  A    between atoms: _107  and  _108
REMARK   46  A    between atoms: _110  and  _112
REMARK   47  A    between atoms: _112  and  _113
REMARK   48  A    between atoms: _112  and  _115
REMARK   49  A    between atoms: _115  and  _116
REMARK   50  A    between atoms: _119  and  _121
REMARK   51  A    between atoms: _121  and  _122
REMARK   52  A    between atoms: _121  and  _124
REMARK   53  A    between atoms: _124  and  _125
REMARK   54  A    between atoms: _128  and  _130
REMARK   55  A    between atoms: _130  and  _131
REMARK   56  A    between atoms: _130  and  _133
REMARK   57  A    between atoms: _136  and  _138
REMARK   58  A    between atoms: _138  and  _139
REMARK   59  A    between atoms: _138  and  _141
REMARK   60  A    between atoms: _141  and  _142
REMARK   61  A    between atoms: _142  and  _143
REMARK   62  A    between atoms: _143  and  _144
REMARK   63  A    between atoms: _153  and  _155
REMARK   64  A    between atoms: _155  and  _156
REMARK   65  A    between atoms: _155  and  _158
REMARK   66  A    between atoms: _158  and  _159
REMARK   67  A    between atoms: _164  and  _166
REMARK   68  A    between atoms: _166  and  _167
REMARK   69  A    between atoms: _166  and  _169
REMARK   70  A    between atoms: _169  and  _170
REMARK   71  A    between atoms: _170  and  _171
REMARK   72  A    between atoms: _174  and  _176
REMARK   73  A    between atoms: _176  and  _177
REMARK   74  A    between atoms: _176  and  _179
REMARK   75  A    between atoms: _179  and  _180
REMARK   76  A    between atoms: _180  and  _181
REMARK   77  A    between atoms: _181  and  _182
REMARK   78  A    between atoms: _182  and  _183
REMARK   79  A    between atoms: _187  and  _189
REMARK   80  A    between atoms: _189  and  _190
REMARK   81  A    between atoms: _192  and  _194
REMARK   82  A    between atoms: _194  and  _195
REMARK   83  A    between atoms: _194  and  _197
REMARK   84  A    between atoms: _200  and  _202
REMARK   85  A    between atoms: _202  and  _203
REMARK   86  A    between atoms: _202  and  _205
REMARK   87  A    between atoms: _205  and  _206
REMARK   88  A    between atoms: _208  and  _210
REMARK   89  A    between atoms: _210  and  _211
REMARK   90  A    between atoms: _210  and  _213
REMARK   91  A    between atoms: _213  and  _214
REMARK   92  A    between atoms: _216  and  _218
REMARK   93  A    between atoms: _218  and  _219
REMARK   94  A    between atoms: _218  and  _221
REMARK   95  A    between atoms: _221  and  _222
REMARK   96  A    between atoms: _228  and  _230
REMARK   97  A    between atoms: _230  and  _231
REMARK   98  A    between atoms: _230  and  _233
REMARK   99  A    between atoms: _233  and  _234
REMARK  100  A    between atoms: _237  and  _239
REMARK  101  A    between atoms: _239  and  _240
REMARK  102  A    between atoms: _239  and  _242
REMARK  103  A    between atoms: _242  and  _243
REMARK  104  A    between atoms: _246  and  _248
REMARK  105  A    between atoms: _248  and  _249
REMARK  106  A    between atoms: _248  and  _251
REMARK  107  A    between atoms: _251  and  _252
REMARK  108  A    between atoms: _255  and  _257
REMARK  109  A    between atoms: _257  and  _258
REMARK  110  A    between atoms: _257  and  _260
REMARK  111  A    between atoms: _260  and  _261
REMARK  112  A    between atoms: _261  and  _262
REMARK  113  A    between atoms: _264  and  _266
REMARK  114  A    between atoms: _266  and  _267
REMARK  115  A    between atoms: _266  and  _269
REMARK  116  A    between atoms: _269  and  _270
REMARK  117  A    between atoms: _276  and  _278
REMARK  118  A    between atoms: _278  and  _279
REMARK  119  A    between atoms: _278  and  _281
REMARK  120  A    between atoms: _283  and  _285
REMARK  121  A    between atoms: _285  and  _286
REMARK  122  A    between atoms: _289  and  _291
REMARK  123  A    between atoms: _291  and  _292
REMARK  124  A    between atoms: _294  and  _296
REMARK  125  A    between atoms: _296  and  _297
REMARK  126  A    between atoms: _296  and  _299
REMARK  127  A    between atoms: _299  and  _300
REMARK  128  A    between atoms: _300  and  _301
REMARK  129  A    between atoms: _304  and  _306
REMARK  130  A    between atoms: _306  and  _307
REMARK  131  A    between atoms: _306  and  _309
REMARK  132  A    between atoms: _309  and  _310
REMARK  133  A    between atoms: _313  and  _315
REMARK  134  A    between atoms: _315  and  _316
REMARK  135  A    between atoms: _319  and  _321
REMARK  136  A    between atoms: _321  and  _322
REMARK  137  A    between atoms: _321  and  _324
REMARK  138  A    between atoms: _324  and  _325
REMARK  139  A    between atoms: _325  and  _448
REMARK  140  A    between atoms: _326  and  _328
REMARK  141  A    between atoms: _328  and  _329
REMARK  142  A    between atoms: _328  and  _331
REMARK  143  A    between atoms: _331  and  _332
REMARK  144  A    between atoms: _332  and  _333
REMARK  145  A    between atoms: _338  and  _340
REMARK  146  A    between atoms: _340  and  _341
REMARK  147  A    between atoms: _343  and  _345
REMARK  148  A    between atoms: _345  and  _346
REMARK  149  A    between atoms: _345  and  _348
REMARK  150  A    between atoms: _348  and  _349
REMARK  151  A    between atoms: _352  and  _354
REMARK  152  A    between atoms: _354  and  _355
REMARK  153  A    between atoms: _354  and  _357
REMARK  154  A    between atoms: _357  and  _358
REMARK  155  A    between atoms: _360  and  _362
REMARK  156  A    between atoms: _362  and  _363
REMARK  157  A    between atoms: _365  and  _367
REMARK  158  A    between atoms: _367  and  _368
REMARK  159  A    between atoms: _370  and  _372
REMARK  160  A    between atoms: _372  and  _373
REMARK  161  A    between atoms: _372  and  _375
REMARK  162  A    between atoms: _375  and  _376
REMARK  163  A    between atoms: _381  and  _383
REMARK  164  A    between atoms: _383  and  _384
REMARK  165  A    between atoms: _383  and  _386
REMARK  166  A    between atoms: _386  and  _387
REMARK  167  A    between atoms: _390  and  _392
REMARK  168  A    between atoms: _392  and  _393
REMARK  169  A    between atoms: _392  and  _395
REMARK  170  A    between atoms: _398  and  _400
REMARK  171  A    between atoms: _400  and  _401
REMARK  172  A    between atoms: _400  and  _403
REMARK  173  A    between atoms: _403  and  _404
REMARK  174  A    between atoms: _406  and  _408
REMARK  175  A    between atoms: _408  and  _409
REMARK  176  A    between atoms: _408  and  _411
REMARK  177  A    between atoms: _411  and  _412
REMARK  178  A    between atoms: _422  and  _424
REMARK  179  A    between atoms: _424  and  _425
REMARK  180  A    between atoms: _427  and  _429
REMARK  181  A    between atoms: _429  and  _430
REMARK  182  A    between atoms: _429  and  _432
REMARK  183  A    between atoms: _432  and  _433
REMARK  184  A    between atoms: _433  and  _434
REMARK  185  A    between atoms: _437  and  _439
REMARK  186  A    between atoms: _439  and  _440
REMARK  187  A    between atoms: _442  and  _444
REMARK  188  A    between atoms: _444  and  _445
REMARK  189  A    between atoms: _444  and  _447
REMARK  190  A    between atoms: _447  and  _448
REMARK  191  A    between atoms: _449  and  _451
REMARK  192  A    between atoms: _451  and  _452
REMARK  193  A    between atoms: _455  and  _457
REMARK  194  A    between atoms: _457  and  _458
REMARK  195  A    between atoms: _457  and  _460
REMARK  196  A    between atoms: _460  and  _461
REMARK  197  A    between atoms: _461  and  _462
REMARK  198  A    between atoms: _462  and  _463
REMARK  199  A    between atoms: _472  and  _474
REMARK  200  A    between atoms: _474  and  _475
REMARK  201  A    between atoms: _474  and  _477
REMARK  202  A    between atoms: _477  and  _478
REMARK  203  A    between atoms: _478  and  _479
REMARK  204  A    between atoms: _479  and  _480
REMARK  205  A    between atoms: _480  and  _481
REMARK  206  A    between atoms: _485  and  _487
REMARK  207  A    between atoms: _487  and  _488
REMARK  208  A    between atoms: _487  and  _490
REMARK  209  A    between atoms: _490  and  _491
REMARK  210  A    between atoms: _496  and  _497
REMARK  211  A    between atoms: _499  and  _501
REMARK  212  A    between atoms: _501  and  _502
REMARK  213  A    between atoms: _504  and  _506
REMARK  214  A    between atoms: _506  and  _507
REMARK  215  A    between atoms: _506  and  _509
REMARK  216  A    between atoms: _509  and  _510
REMARK  217  A    between atoms: _513  and  _515
REMARK  218  A    between atoms: _515  and  _516
REMARK  219  A    between atoms: _515  and  _518
REMARK  220  A    between atoms: _518  and  _519
REMARK  221  A    between atoms: _524  and  _525
REMARK  222  A    between atoms: _527  and  _529
REMARK  223  A    between atoms: _529  and  _530
REMARK  224  A    between atoms: _529  and  _532
REMARK  225  A    between atoms: _532  and  _533
REMARK                            x       y       z     vdW  Elec       q    Type
REMARK                         _______ _______ _______ _____ _____    ______ ____
ROOT
ATOM      1  O   HOH     1      16.504  -1.555  30.128  0.00  0.00    +0.000 OA
ENDROOT
TORSDOF 0
REMARK  Name = ../refined-set-2016/2vvc/2vvc_pocket.pdb
REMARK  225 active torsions:
REMARK  status: ('A' for Active; 'I' for Inactive)
REMARK    1  A    between atoms: _1  and  _5
REMARK    2  A    between atoms: _5  and  _6
REMARK    3  A    between atoms: _5  and  _8
REMARK    4  A    between atoms: _8  and  _9
REMARK    5  A    between atoms: _12  and  _14
REMARK    6  A    between atoms: _14  and  _15
REMARK    7  A    between atoms: _14  and  _17
REMARK    8  A    between atoms: _20  and  _22
REMARK    9  A    between atoms: _22  and  _23
REMARK   10  A    between atoms: _22  and  _25
REMARK   11  A    between atoms: _25  and  _26
REMARK   12  A    between atoms: _31  and  _33
REMARK   13  A    between atoms: _33  and  _34
REMARK   14  A    between atoms: _33  and  _36
REMARK   15  A    between atoms: _36  and  _37
REMARK   16  A    between atoms: _37  and  _38
REMARK   17  A    between atoms: _43  and  _45
REMARK   18  A    between atoms: _45  and  _46
REMARK   19  A    between atoms: _45  and  _48
REMARK   20  A    between atoms: _48  and  _49
REMARK   21  A    between atoms: _55  and  _57
REMARK   22  A    between atoms: _57  and  _58
REMARK   23  A    between atoms: _57  and  _60
REMARK   24  A    between atoms: _60  and  _61
REMARK   25  A    between atoms: _64  and  _66
REMARK   26  A    between atoms: _66  and  _67
REMARK   27  A    between atoms: _66  and  _69
REMARK   28  A    between atoms: _69  and  _70
REMARK   29  A    between atoms: _70  and  _71
REMARK   30  A    between atoms: _71  and  _72
REMARK   31  A    between atoms: _72  and  _73
REMARK   32  A    between atoms: _77  and  _79
REMARK   33  A    between atoms: _79  and  _80
REMARK   34  A    between atoms: _79  and  _82
REMARK   35  A    between atoms: _82  and  _83
REMARK   36  A    between atoms: _83  and  _84
REMARK   37  A    between atoms: _87  and  _89
REMARK   38  A    between atoms: _89  and  _90
REMARK   39  A    between atoms: _89  and  _92
REMARK   40  A    between atoms: _92  and  _93
REMARK   41  A    between atoms: _96  and  _98
REMARK   42  A    between atoms: _98  and  _99
REMARK   43  A    between atoms: _98  and  _101
REMARK   44  A    between atoms: _101  and  _102
REMARK   45  A    between atoms: _107  and  _108
REMARK   46  A    between atoms: _110  and  _112
REMARK   47  A    between atoms: _112  and  _113
REMARK   48  A    between atoms: _112  and  _115
REMARK   49  A    between atoms: _115  and  _116
REMARK   50  A    between atoms: _119  and  _121
REMARK   51  A    between atoms: _121  and  _122
REMARK   52  A    between atoms: _121  and  _124
REMARK   53  A    between atoms: _124  and  _125
REMARK   54  A    between atoms: _128  and  _130
REMARK   55  A    between atoms: _130  and  _131
REMARK   56  A    between atoms: _130  and  _133
REMARK   57  A    between atoms: _136  and  _138
REMARK   58  A    between atoms: _138  and  _139
REMARK   59  A    between atoms: _138  and  _141
REMARK   60  A    between atoms: _141  and  _142
REMARK   61  A    between atoms: _142  and  _143
REMARK   62  A    between atoms: _143  and  _144
REMARK   63  A    between atoms: _153  and  _155
REMARK   64  A    between atoms: _155  and  _156
REMARK   65  A    between atoms: _155  and  _158
REMARK   66  A    between atoms: _158  and  _159
REMARK   67  A    between atoms: _164  and  _166
REMARK   68  A    between atoms: _166  and  _167
REMARK   69  A    between atoms: _166  and  _169
REMARK   70  A    between atoms: _169  and  _170
REMARK   71  A    between atoms: _170  and  _171
REMARK   72  A    between atoms: _174  and  _176
REMARK   73  A    between atoms: _176  and  _177
REMARK   74  A    between atoms: _176  and  _179
REMARK   75  A    between atoms: _179  and  _180
REMARK   76  A    between atoms: _180  and  _181
REMARK   77  A    between atoms: _181  and  _182
REMARK   78  A    between atoms: _182  and  _183
REMARK   79  A    between atoms: _187  and  _189
REMARK   80  A    between atoms: _189  and  _190
REMARK   81  A    between atoms: _192  and  _194
REMARK   82  A    between atoms: _194  and  _195
REMARK   83  A    between atoms: _194  and  _197
REMARK   84  A    between atoms: _200  and  _202
REMARK   85  A    between atoms: _202  and  _203
REMARK   86  A    between atoms: _202  and  _205
REMARK   87  A    between atoms: _205  and  _206
REMARK   88  A    between atoms: _208  and  _210
REMARK   89  A    between atoms: _210  and  _211
REMARK   90  A    between atoms: _210  and  _213
REMARK   91  A    between atoms: _213  and  _214
REMARK   92  A    between atoms: _216  and  _218
REMARK   93  A    between atoms: _218  and  _219
REMARK   94  A    between atoms: _218  and  _221
REMARK   95  A    between atoms: _221  and  _222
REMARK   96  A    between atoms: _228  and  _230
REMARK   97  A    between atoms: _230  and  _231
REMARK   98  A    between atoms: _230  and  _233
REMARK   99  A    between atoms: _233  and  _234
REMARK  100  A    between atoms: _237  and  _239
REMARK  101  A    between atoms: _239  and  _240
REMARK  102  A    between atoms: _239  and  _242
REMARK  103  A    between atoms: _242  and  _243
REMARK  104  A    between atoms: _246  and  _248
REMARK  105  A    between atoms: _248  and  _249
REMARK  106  A    between atoms: _248  and  _251
REMARK  107  A    between atoms: _251  and  _252
REMARK  108  A    between atoms: _255  and  _257
REMARK  109  A    between atoms: _257  and  _258
REMARK  110  A    between atoms: _257  and  _260
REMARK  111  A    between atoms: _260  and  _261
REMARK  112  A    between atoms: _261  and  _262
REMARK  113  A    between atoms: _264  and  _266
REMARK  114  A    between atoms: _266  and  _267
REMARK  115  A    between atoms: _266  and  _269
REMARK  116  A    between atoms: _269  and  _270
REMARK  117  A    between atoms: _276  and  _278
REMARK  118  A    between atoms: _278  and  _279
REMARK  119  A    between atoms: _278  and  _281
REMARK  120  A    between atoms: _283  and  _285
REMARK  121  A    between atoms: _285  and  _286
REMARK  122  A    between atoms: _289  and  _291
REMARK  123  A    between atoms: _291  and  _292
REMARK  124  A    between atoms: _294  and  _296
REMARK  125  A    between atoms: _296  and  _297
REMARK  126  A    between atoms: _296  and  _299
REMARK  127  A    between atoms: _299  and  _300
REMARK  128  A    between atoms: _300  and  _301
REMARK  129  A    between atoms: _304  and  _306
REMARK  130  A    between atoms: _306  and  _307
REMARK  131  A    between atoms: _306  and  _309
REMARK  132  A    between atoms: _309  and  _310
REMARK  133  A    between atoms: _313  and  _315
REMARK  134  A    between atoms: _315  and  _316
REMARK  135  A    between atoms: _319  and  _321
REMARK  136  A    between atoms: _321  and  _322
REMARK  137  A    between atoms: _321  and  _324
REMARK  138  A    between atoms: _324  and  _325
REMARK  139  A    between atoms: _325  and  _448
REMARK  140  A    between atoms: _326  and  _328
REMARK  141  A    between atoms: _328  and  _329
REMARK  142  A    between atoms: _328  and  _331
REMARK  143  A    between atoms: _331  and  _332
REMARK  144  A    between atoms: _332  and  _333
REMARK  145  A    between atoms: _338  and  _340
REMARK  146  A    between atoms: _340  and  _341
REMARK  147  A    between atoms: _343  and  _345
REMARK  148  A    between atoms: _345  and  _346
REMARK  149  A    between atoms: _345  and  _348
REMARK  150  A    between atoms: _348  and  _349
REMARK  151  A    between atoms: _352  and  _354
REMARK  152  A    between atoms: _354  and  _355
REMARK  153  A    between atoms: _354  and  _357
REMARK  154  A    between atoms: _357  and  _358
REMARK  155  A    between atoms: _360  and  _362
REMARK  156  A    between atoms: _362  and  _363
REMARK  157  A    between atoms: _365  and  _367
REMARK  158  A    between atoms: _367  and  _368
REMARK  159  A    between atoms: _370  and  _372
REMARK  160  A    between atoms: _372  and  _373
REMARK  161  A    between atoms: _372  and  _375
REMARK  162  A    between atoms: _375  and  _376
REMARK  163  A    between atoms: _381  and  _383
REMARK  164  A    between atoms: _383  and  _384
REMARK  165  A    between atoms: _383  and  _386
REMARK  166  A    between atoms: _386  and  _387
REMARK  167  A    between atoms: _390  and  _392
REMARK  168  A    between atoms: _392  and  _393
REMARK  169  A    between atoms: _392  and  _395
REMARK  170  A    between atoms: _398  and  _400
REMARK  171  A    between atoms: _400  and  _401
REMARK  172  A    between atoms: _400  and  _403
REMARK  173  A    between atoms: _403  and  _404
REMARK  174  A    between atoms: _406  and  _408
REMARK  175  A    between atoms: _408  and  _409
REMARK  176  A    between atoms: _408  and  _411
REMARK  177  A    between atoms: _411  and  _412
REMARK  178  A    between atoms: _422  and  _424
REMARK  179  A    between atoms: _424  and  _425
REMARK  180  A    between atoms: _427  and  _429
REMARK  181  A    between atoms: _429  and  _430
REMARK  182  A    between atoms: _429  and  _432
REMARK  183  A    between atoms: _432  and  _433
REMARK  184  A    between atoms: _433  and  _434
REMARK  185  A    between atoms: _437  and  _439
REMARK  186  A    between atoms: _439  and  _440
REMARK  187  A    between atoms: _442  and  _444
REMARK  188  A    between atoms: _444  and  _445
REMARK  189  A    between atoms: _444  and  _447
REMARK  190  A    between atoms: _447  and  _448
REMARK  191  A    between atoms: _449  and  _451
REMARK  192  A    between atoms: _451  and  _452
REMARK  193  A    between atoms: _455  and  _457
REMARK  194  A    between atoms: _457  and  _458
REMARK  195  A    between atoms: _457  and  _460
REMARK  196  A    between atoms: _460  and  _461
REMARK  197  A    between atoms: _461  and  _462
REMARK  198  A    between atoms: _462  and  _463
REMARK  199  A    between atoms: _472  and  _474
REMARK  200  A    between atoms: _474  and  _475
REMARK  201  A    between atoms: _474  and  _477
REMARK  202  A    between atoms: _477  and  _478
REMARK  203  A    between atoms: _478  and  _479
REMARK  204  A    between atoms: _479  and  _480
REMARK  205  A    between atoms: _480  and  _481
REMARK  206  A    between atoms: _485  and  _487
REMARK  207  A    between atoms: _487  and  _488
REMARK  208  A    between atoms: _487  and  _490
REMARK  209  A    between atoms: _490  and  _491
REMARK  210  A    between atoms: _496  and  _497
REMARK  211  A    between atoms: _499  and  _501
REMARK  212  A    between atoms: _501  and  _502
REMARK  213  A    between atoms: _504  and  _506
REMARK  214  A    between atoms: _506  and  _507
REMARK  215  A    between atoms: _506  and  _509
REMARK  216  A    between atoms: _509  and  _510
REMARK  217  A    between atoms: _513  and  _515
REMARK  218  A    between atoms: _515  and  _516
REMARK  219  A    between atoms: _515  and  _518
REMARK  220  A    between atoms: _518  and  _519
REMARK  221  A    between atoms: _524  and  _525
REMARK  222  A    between atoms: _527  and  _529
REMARK  223  A    between atoms: _529  and  _530
REMARK  224  A    between atoms: _529  and  _532
REMARK  225  A    between atoms: _532  and  _533
REMARK                            x       y       z     vdW  Elec       q    Type
REMARK                         _______ _______ _______ _____ _____    ______ ____
ROOT
ATOM      1  O   HOH     1      11.088   6.084  23.692  0.00  0.00    +0.000 OA
ENDROOT
TORSDOF 0
REMARK  Name = ../refined-set-2016/2vvc/2vvc_pocket.pdb
REMARK  225 active torsions:
REMARK  status: ('A' for Active; 'I' for Inactive)
REMARK    1  A    between atoms: _1  and  _5
REMARK    2  A    between atoms: _5  and  _6
REMARK    3  A    between atoms: _5  and  _8
REMARK    4  A    between atoms: _8  and  _9
REMARK    5  A    between atoms: _12  and  _14
REMARK    6  A    between atoms: _14  and  _15
REMARK    7  A    between atoms: _14  and  _17
REMARK    8  A    between atoms: _20  and  _22
REMARK    9  A    between atoms: _22  and  _23
REMARK   10  A    between atoms: _22  and  _25
REMARK   11  A    between atoms: _25  and  _26
REMARK   12  A    between atoms: _31  and  _33
REMARK   13  A    between atoms: _33  and  _34
REMARK   14  A    between atoms: _33  and  _36
REMARK   15  A    between atoms: _36  and  _37
REMARK   16  A    between atoms: _37  and  _38
REMARK   17  A    between atoms: _43  and  _45
REMARK   18  A    between atoms: _45  and  _46
REMARK   19  A    between atoms: _45  and  _48
REMARK   20  A    between atoms: _48  and  _49
REMARK   21  A    between atoms: _55  and  _57
REMARK   22  A    between atoms: _57  and  _58
REMARK   23  A    between atoms: _57  and  _60
REMARK   24  A    between atoms: _60  and  _61
REMARK   25  A    between atoms: _64  and  _66
REMARK   26  A    between atoms: _66  and  _67
REMARK   27  A    between atoms: _66  and  _69
REMARK   28  A    between atoms: _69  and  _70
REMARK   29  A    between atoms: _70  and  _71
REMARK   30  A    between atoms: _71  and  _72
REMARK   31  A    between atoms: _72  and  _73
REMARK   32  A    between atoms: _77  and  _79
REMARK   33  A    between atoms: _79  and  _80
REMARK   34  A    between atoms: _79  and  _82
REMARK   35  A    between atoms: _82  and  _83
REMARK   36  A    between atoms: _83  and  _84
REMARK   37  A    between atoms: _87  and  _89
REMARK   38  A    between atoms: _89  and  _90
REMARK   39  A    between atoms: _89  and  _92
REMARK   40  A    between atoms: _92  and  _93
REMARK   41  A    between atoms: _96  and  _98
REMARK   42  A    between atoms: _98  and  _99
REMARK   43  A    between atoms: _98  and  _101
REMARK   44  A    between atoms: _101  and  _102
REMARK   45  A    between atoms: _107  and  _108
REMARK   46  A    between atoms: _110  and  _112
REMARK   47  A    between atoms: _112  and  _113
REMARK   48  A    between atoms: _112  and  _115
REMARK   49  A    between atoms: _115  and  _116
REMARK   50  A    between atoms: _119  and  _121
REMARK   51  A    between atoms: _121  and  _122
REMARK   52  A    between atoms: _121  and  _124
REMARK   53  A    between atoms: _124  and  _125
REMARK   54  A    between atoms: _128  and  _130
REMARK   55  A    between atoms: _130  and  _131
REMARK   56  A    between atoms: _130  and  _133
REMARK   57  A    between atoms: _136  and  _138
REMARK   58  A    between atoms: _138  and  _139
REMARK   59  A    between atoms: _138  and  _141
REMARK   60  A    between atoms: _141  and  _142
REMARK   61  A    between atoms: _142  and  _143
REMARK   62  A    between atoms: _143  and  _144
REMARK   63  A    between atoms: _153  and  _155
REMARK   64  A    between atoms: _155  and  _156
REMARK   65  A    between atoms: _155  and  _158
REMARK   66  A    between atoms: _158  and  _159
REMARK   67  A    between atoms: _164  and  _166
REMARK   68  A    between atoms: _166  and  _167
REMARK   69  A    between atoms: _166  and  _169
REMARK   70  A    between atoms: _169  and  _170
REMARK   71  A    between atoms: _170  and  _171
REMARK   72  A    between atoms: _174  and  _176
REMARK   73  A    between atoms: _176  and  _177
REMARK   74  A    between atoms: _176  and  _179
REMARK   75  A    between atoms: _179  and  _180
REMARK   76  A    between atoms: _180  and  _181
REMARK   77  A    between atoms: _181  and  _182
REMARK   78  A    between atoms: _182  and  _183
REMARK   79  A    between atoms: _187  and  _189
REMARK   80  A    between atoms: _189  and  _190
REMARK   81  A    between atoms: _192  and  _194
REMARK   82  A    between atoms: _194  and  _195
REMARK   83  A    between atoms: _194  and  _197
REMARK   84  A    between atoms: _200  and  _202
REMARK   85  A    between atoms: _202  and  _203
REMARK   86  A    between atoms: _202  and  _205
REMARK   87  A    between atoms: _205  and  _206
REMARK   88  A    between atoms: _208  and  _210
REMARK   89  A    between atoms: _210  and  _211
REMARK   90  A    between atoms: _210  and  _213
REMARK   91  A    between atoms: _213  and  _214
REMARK   92  A    between atoms: _216  and  _218
REMARK   93  A    between atoms: _218  and  _219
REMARK   94  A    between atoms: _218  and  _221
REMARK   95  A    between atoms: _221  and  _222
REMARK   96  A    between atoms: _228  and  _230
REMARK   97  A    between atoms: _230  and  _231
REMARK   98  A    between atoms: _230  and  _233
REMARK   99  A    between atoms: _233  and  _234
REMARK  100  A    between atoms: _237  and  _239
REMARK  101  A    between atoms: _239  and  _240
REMARK  102  A    between atoms: _239  and  _242
REMARK  103  A    between atoms: _242  and  _243
REMARK  104  A    between atoms: _246  and  _248
REMARK  105  A    between atoms: _248  and  _249
REMARK  106  A    between atoms: _248  and  _251
REMARK  107  A    between atoms: _251  and  _252
REMARK  108  A    between atoms: _255  and  _257
REMARK  109  A    between atoms: _257  and  _258
REMARK  110  A    between atoms: _257  and  _260
REMARK  111  A    between atoms: _260  and  _261
REMARK  112  A    between atoms: _261  and  _262
REMARK  113  A    between atoms: _264  and  _266
REMARK  114  A    between atoms: _266  and  _267
REMARK  115  A    between atoms: _266  and  _269
REMARK  116  A    between atoms: _269  and  _270
REMARK  117  A    between atoms: _276  and  _278
REMARK  118  A    between atoms: _278  and  _279
REMARK  119  A    between atoms: _278  and  _281
REMARK  120  A    between atoms: _283  and  _285
REMARK  121  A    between atoms: _285  and  _286
REMARK  122  A    between atoms: _289  and  _291
REMARK  123  A    between atoms: _291  and  _292
REMARK  124  A    between atoms: _294  and  _296
REMARK  125  A    between atoms: _296  and  _297
REMARK  126  A    between atoms: _296  and  _299
REMARK  127  A    between atoms: _299  and  _300
REMARK  128  A    between atoms: _300  and  _301
REMARK  129  A    between atoms: _304  and  _306
REMARK  130  A    between atoms: _306  and  _307
REMARK  131  A    between atoms: _306  and  _309
REMARK  132  A    between atoms: _309  and  _310
REMARK  133  A    between atoms: _313  and  _315
REMARK  134  A    between atoms: _315  and  _316
REMARK  135  A    between atoms: _319  and  _321
REMARK  136  A    between atoms: _321  and  _322
REMARK  137  A    between atoms: _321  and  _324
REMARK  138  A    between atoms: _324  and  _325
REMARK  139  A    between atoms: _325  and  _448
REMARK  140  A    between atoms: _326  and  _328
REMARK  141  A    between atoms: _328  and  _329
REMARK  142  A    between atoms: _328  and  _331
REMARK  143  A    between atoms: _331  and  _332
REMARK  144  A    between atoms: _332  and  _333
REMARK  145  A    between atoms: _338  and  _340
REMARK  146  A    between atoms: _340  and  _341
REMARK  147  A    between atoms: _343  and  _345
REMARK  148  A    between atoms: _345  and  _346
REMARK  149  A    between atoms: _345  and  _348
REMARK  150  A    between atoms: _348  and  _349
REMARK  151  A    between atoms: _352  and  _354
REMARK  152  A    between atoms: _354  and  _355
REMARK  153  A    between atoms: _354  and  _357
REMARK  154  A    between atoms: _357  and  _358
REMARK  155  A    between atoms: _360  and  _362
REMARK  156  A    between atoms: _362  and  _363
REMARK  157  A    between atoms: _365  and  _367
REMARK  158  A    between atoms: _367  and  _368
REMARK  159  A    between atoms: _370  and  _372
REMARK  160  A    between atoms: _372  and  _373
REMARK  161  A    between atoms: _372  and  _375
REMARK  162  A    between atoms: _375  and  _376
REMARK  163  A    between atoms: _381  and  _383
REMARK  164  A    between atoms: _383  and  _384
REMARK  165  A    between atoms: _383  and  _386
REMARK  166  A    between atoms: _386  and  _387
REMARK  167  A    between atoms: _390  and  _392
REMARK  168  A    between atoms: _392  and  _393
REMARK  169  A    between atoms: _392  and  _395
REMARK  170  A    between atoms: _398  and  _400
REMARK  171  A    between atoms: _400  and  _401
REMARK  172  A    between atoms: _400  and  _403
REMARK  173  A    between atoms: _403  and  _404
REMARK  174  A    between atoms: _406  and  _408
REMARK  175  A    between atoms: _408  and  _409
REMARK  176  A    between atoms: _408  and  _411
REMARK  177  A    between atoms: _411  and  _412
REMARK  178  A    between atoms: _422  and  _424
REMARK  179  A    between atoms: _424  and  _425
REMARK  180  A    between atoms: _427  and  _429
REMARK  181  A    between atoms: _429  and  _430
REMARK  182  A    between atoms: _429  and  _432
REMARK  183  A    between atoms: _432  and  _433
REMARK  184  A    between atoms: _433  and  _434
REMARK  185  A    between atoms: _437  and  _439
REMARK  186  A    between atoms: _439  and  _440
REMARK  187  A    between atoms: _442  and  _444
REMARK  188  A    between atoms: _444  and  _445
REMARK  189  A    between atoms: _444  and  _447
REMARK  190  A    between atoms: _447  and  _448
REMARK  191  A    between atoms: _449  and  _451
REMARK  192  A    between atoms: _451  and  _452
REMARK  193  A    between atoms: _455  and  _457
REMARK  194  A    between atoms: _457  and  _458
REMARK  195  A    between atoms: _457  and  _460
REMARK  196  A    between atoms: _460  and  _461
REMARK  197  A    between atoms: _461  and  _462
REMARK  198  A    between atoms: _462  and  _463
REMARK  199  A    between atoms: _472  and  _474
REMARK  200  A    between atoms: _474  and  _475
REMARK  201  A    between atoms: _474  and  _477
REMARK  202  A    between atoms: _477  and  _478
REMARK  203  A    between atoms: _478  and  _479
REMARK  204  A    between atoms: _479  and  _480
REMARK  205  A    between atoms: _480  and  _481
REMARK  206  A    between atoms: _485  and  _487
REMARK  207  A    between atoms: _487  and  _488
REMARK  208  A    between atoms: _487  and  _490
REMARK  209  A    between atoms: _490  and  _491
REMARK  210  A    between atoms: _496  and  _497
REMARK  211  A    between atoms: _499  and  _501
REMARK  212  A    between atoms: _501  and  _502
REMARK  213  A    between atoms: _504  and  _506
REMARK  214  A    between atoms: _506  and  _507
REMARK  215  A    between atoms: _506  and  _509
REMARK  216  A    between atoms: _509  and  _510
REMARK  217  A    between atoms: _513  and  _515
REMARK  218  A    between atoms: _515  and  _516
REMARK  219  A    between atoms: _515  and  _518
REMARK  220  A    between atoms: _518  and  _519
REMARK  221  A    between atoms: _524  and  _525
REMARK  222  A    between atoms: _527  and  _529
REMARK  223  A    between atoms: _529  and  _530
REMARK  224  A    between atoms: _529  and  _532
REMARK  225  A    between atoms: _532  and  _533
REMARK                            x       y       z     vdW  Elec       q    Type
REMARK                         _______ _______ _______ _____ _____    ______ ____
ROOT
ATOM      1  O   HOH     1      11.447   5.706  28.156  0.00  0.00    +0.000 OA
ENDROOT
TORSDOF 0
REMARK  Name = ../refined-set-2016/2vvc/2vvc_pocket.pdb
REMARK  225 active torsions:
REMARK  status: ('A' for Active; 'I' for Inactive)
REMARK    1  A    between atoms: _1  and  _5
REMARK    2  A    between atoms: _5  and  _6
REMARK    3  A    between atoms: _5  and  _8
REMARK    4  A    between atoms: _8  and  _9
REMARK    5  A    between atoms: _12  and  _14
REMARK    6  A    between atoms: _14  and  _15
REMARK    7  A    between atoms: _14  and  _17
REMARK    8  A    between atoms: _20  and  _22
REMARK    9  A    between atoms: _22  and  _23
REMARK   10  A    between atoms: _22  and  _25
REMARK   11  A    between atoms: _25  and  _26
REMARK   12  A    between atoms: _31  and  _33
REMARK   13  A    between atoms: _33  and  _34
REMARK   14  A    between atoms: _33  and  _36
REMARK   15  A    between atoms: _36  and  _37
REMARK   16  A    between atoms: _37  and  _38
REMARK   17  A    between atoms: _43  and  _45
REMARK   18  A    between atoms: _45  and  _46
REMARK   19  A    between atoms: _45  and  _48
REMARK   20  A    between atoms: _48  and  _49
REMARK   21  A    between atoms: _55  and  _57
REMARK   22  A    between atoms: _57  and  _58
REMARK   23  A    between atoms: _57  and  _60
REMARK   24  A    between atoms: _60  and  _61
REMARK   25  A    between atoms: _64  and  _66
REMARK   26  A    between atoms: _66  and  _67
REMARK   27  A    between atoms: _66  and  _69
REMARK   28  A    between atoms: _69  and  _70
REMARK   29  A    between atoms: _70  and  _71
REMARK   30  A    between atoms: _71  and  _72
REMARK   31  A    between atoms: _72  and  _73
REMARK   32  A    between atoms: _77  and  _79
REMARK   33  A    between atoms: _79  and  _80
REMARK   34  A    between atoms: _79  and  _82
REMARK   35  A    between atoms: _82  and  _83
REMARK   36  A    between atoms: _83  and  _84
REMARK   37  A    between atoms: _87  and  _89
REMARK   38  A    between atoms: _89  and  _90
REMARK   39  A    between atoms: _89  and  _92
REMARK   40  A    between atoms: _92  and  _93
REMARK   41  A    between atoms: _96  and  _98
REMARK   42  A    between atoms: _98  and  _99
REMARK   43  A    between atoms: _98  and  _101
REMARK   44  A    between atoms: _101  and  _102
REMARK   45  A    between atoms: _107  and  _108
REMARK   46  A    between atoms: _110  and  _112
REMARK   47  A    between atoms: _112  and  _113
REMARK   48  A    between atoms: _112  and  _115
REMARK   49  A    between atoms: _115  and  _116
REMARK   50  A    between atoms: _119  and  _121
REMARK   51  A    between atoms: _121  and  _122
REMARK   52  A    between atoms: _121  and  _124
REMARK   53  A    between atoms: _124  and  _125
REMARK   54  A    between atoms: _128  and  _130
REMARK   55  A    between atoms: _130  and  _131
REMARK   56  A    between atoms: _130  and  _133
REMARK   57  A    between atoms: _136  and  _138
REMARK   58  A    between atoms: _138  and  _139
REMARK   59  A    between atoms: _138  and  _141
REMARK   60  A    between atoms: _141  and  _142
REMARK   61  A    between atoms: _142  and  _143
REMARK   62  A    between atoms: _143  and  _144
REMARK   63  A    between atoms: _153  and  _155
REMARK   64  A    between atoms: _155  and  _156
REMARK   65  A    between atoms: _155  and  _158
REMARK   66  A    between atoms: _158  and  _159
REMARK   67  A    between atoms: _164  and  _166
REMARK   68  A    between atoms: _166  and  _167
REMARK   69  A    between atoms: _166  and  _169
REMARK   70  A    between atoms: _169  and  _170
REMARK   71  A    between atoms: _170  and  _171
REMARK   72  A    between atoms: _174  and  _176
REMARK   73  A    between atoms: _176  and  _177
REMARK   74  A    between atoms: _176  and  _179
REMARK   75  A    between atoms: _179  and  _180
REMARK   76  A    between atoms: _180  and  _181
REMARK   77  A    between atoms: _181  and  _182
REMARK   78  A    between atoms: _182  and  _183
REMARK   79  A    between atoms: _187  and  _189
REMARK   80  A    between atoms: _189  and  _190
REMARK   81  A    between atoms: _192  and  _194
REMARK   82  A    between atoms: _194  and  _195
REMARK   83  A    between atoms: _194  and  _197
REMARK   84  A    between atoms: _200  and  _202
REMARK   85  A    between atoms: _202  and  _203
REMARK   86  A    between atoms: _202  and  _205
REMARK   87  A    between atoms: _205  and  _206
REMARK   88  A    between atoms: _208  and  _210
REMARK   89  A    between atoms: _210  and  _211
REMARK   90  A    between atoms: _210  and  _213
REMARK   91  A    between atoms: _213  and  _214
REMARK   92  A    between atoms: _216  and  _218
REMARK   93  A    between atoms: _218  and  _219
REMARK   94  A    between atoms: _218  and  _221
REMARK   95  A    between atoms: _221  and  _222
REMARK   96  A    between atoms: _228  and  _230
REMARK   97  A    between atoms: _230  and  _231
REMARK   98  A    between atoms: _230  and  _233
REMARK   99  A    between atoms: _233  and  _234
REMARK  100  A    between atoms: _237  and  _239
REMARK  101  A    between atoms: _239  and  _240
REMARK  102  A    between atoms: _239  and  _242
REMARK  103  A    between atoms: _242  and  _243
REMARK  104  A    between atoms: _246  and  _248
REMARK  105  A    between atoms: _248  and  _249
REMARK  106  A    between atoms: _248  and  _251
REMARK  107  A    between atoms: _251  and  _252
REMARK  108  A    between atoms: _255  and  _257
REMARK  109  A    between atoms: _257  and  _258
REMARK  110  A    between atoms: _257  and  _260
REMARK  111  A    between atoms: _260  and  _261
REMARK  112  A    between atoms: _261  and  _262
REMARK  113  A    between atoms: _264  and  _266
REMARK  114  A    between atoms: _266  and  _267
REMARK  115  A    between atoms: _266  and  _269
REMARK  116  A    between atoms: _269  and  _270
REMARK  117  A    between atoms: _276  and  _278
REMARK  118  A    between atoms: _278  and  _279
REMARK  119  A    between atoms: _278  and  _281
REMARK  120  A    between atoms: _283  and  _285
REMARK  121  A    between atoms: _285  and  _286
REMARK  122  A    between atoms: _289  and  _291
REMARK  123  A    between atoms: _291  and  _292
REMARK  124  A    between atoms: _294  and  _296
REMARK  125  A    between atoms: _296  and  _297
REMARK  126  A    between atoms: _296  and  _299
REMARK  127  A    between atoms: _299  and  _300
REMARK  128  A    between atoms: _300  and  _301
REMARK  129  A    between atoms: _304  and  _306
REMARK  130  A    between atoms: _306  and  _307
REMARK  131  A    between atoms: _306  and  _309
REMARK  132  A    between atoms: _309  and  _310
REMARK  133  A    between atoms: _313  and  _315
REMARK  134  A    between atoms: _315  and  _316
REMARK  135  A    between atoms: _319  and  _321
REMARK  136  A    between atoms: _321  and  _322
REMARK  137  A    between atoms: _321  and  _324
REMARK  138  A    between atoms: _324  and  _325
REMARK  139  A    between atoms: _325  and  _448
REMARK  140  A    between atoms: _326  and  _328
REMARK  141  A    between atoms: _328  and  _329
REMARK  142  A    between atoms: _328  and  _331
REMARK  143  A    between atoms: _331  and  _332
REMARK  144  A    between atoms: _332  and  _333
REMARK  145  A    between atoms: _338  and  _340
REMARK  146  A    between atoms: _340  and  _341
REMARK  147  A    between atoms: _343  and  _345
REMARK  148  A    between atoms: _345  and  _346
REMARK  149  A    between atoms: _345  and  _348
REMARK  150  A    between atoms: _348  and  _349
REMARK  151  A    between atoms: _352  and  _354
REMARK  152  A    between atoms: _354  and  _355
REMARK  153  A    between atoms: _354  and  _357
REMARK  154  A    between atoms: _357  and  _358
REMARK  155  A    between atoms: _360  and  _362
REMARK  156  A    between atoms: _362  and  _363
REMARK  157  A    between atoms: _365  and  _367
REMARK  158  A    between atoms: _367  and  _368
REMARK  159  A    between atoms: _370  and  _372
REMARK  160  A    between atoms: _372  and  _373
REMARK  161  A    between atoms: _372  and  _375
REMARK  162  A    between atoms: _375  and  _376
REMARK  163  A    between atoms: _381  and  _383
REMARK  164  A    between atoms: _383  and  _384
REMARK  165  A    between atoms: _383  and  _386
REMARK  166  A    between atoms: _386  and  _387
REMARK  167  A    between atoms: _390  and  _392
REMARK  168  A    between atoms: _392  and  _393
REMARK  169  A    between atoms: _392  and  _395
REMARK  170  A    between atoms: _398  and  _400
REMARK  171  A    between atoms: _400  and  _401
REMARK  172  A    between atoms: _400  and  _403
REMARK  173  A    between atoms: _403  and  _404
REMARK  174  A    between atoms: _406  and  _408
REMARK  175  A    between atoms: _408  and  _409
REMARK  176  A    between atoms: _408  and  _411
REMARK  177  A    between atoms: _411  and  _412
REMARK  178  A    between atoms: _422  and  _424
REMARK  179  A    between atoms: _424  and  _425
REMARK  180  A    between atoms: _427  and  _429
REMARK  181  A    between atoms: _429  and  _430
REMARK  182  A    between atoms: _429  and  _432
REMARK  183  A    between atoms: _432  and  _433
REMARK  184  A    between atoms: _433  and  _434
REMARK  185  A    between atoms: _437  and  _439
REMARK  186  A    between atoms: _439  and  _440
REMARK  187  A    between atoms: _442  and  _444
REMARK  188  A    between atoms: _444  and  _445
REMARK  189  A    between atoms: _444  and  _447
REMARK  190  A    between atoms: _447  and  _448
REMARK  191  A    between atoms: _449  and  _451
REMARK  192  A    between atoms: _451  and  _452
REMARK  193  A    between atoms: _455  and  _457
REMARK  194  A    between atoms: _457  and  _458
REMARK  195  A    between atoms: _457  and  _460
REMARK  196  A    between atoms: _460  and  _461
REMARK  197  A    between atoms: _461  and  _462
REMARK  198  A    between atoms: _462  and  _463
REMARK  199  A    between atoms: _472  and  _474
REMARK  200  A    between atoms: _474  and  _475
REMARK  201  A    between atoms: _474  and  _477
REMARK  202  A    between atoms: _477  and  _478
REMARK  203  A    between atoms: _478  and  _479
REMARK  204  A    between atoms: _479  and  _480
REMARK  205  A    between atoms: _480  and  _481
REMARK  206  A    between atoms: _485  and  _487
REMARK  207  A    between atoms: _487  and  _488
REMARK  208  A    between atoms: _487  and  _490
REMARK  209  A    between atoms: _490  and  _491
REMARK  210  A    between atoms: _496  and  _497
REMARK  211  A    between atoms: _499  and  _501
REMARK  212  A    between atoms: _501  and  _502
REMARK  213  A    between atoms: _504  and  _506
REMARK  214  A    between atoms: _506  and  _507
REMARK  215  A    between atoms: _506  and  _509
REMARK  216  A    between atoms: _509  and  _510
REMARK  217  A    between atoms: _513  and  _515
REMARK  218  A    between atoms: _515  and  _516
REMARK  219  A    between atoms: _515  and  _518
REMARK  220  A    between atoms: _518  and  _519
REMARK  221  A    between atoms: _524  and  _525
REMARK  222  A    between atoms: _527  and  _529
REMARK  223  A    between atoms: _529  and  _530
REMARK  224  A    between atoms: _529  and  _532
REMARK  225  A    between atoms: _532  and  _533
REMARK                            x       y       z     vdW  Elec       q    Type
REMARK                         _______ _______ _______ _____ _____    ______ ____
ROOT
ATOM      1  O   HOH     1      18.432   0.891  31.930  0.00  0.00    +0.000 OA
ENDROOT
TORSDOF 0
REMARK  Name = ../refined-set-2016/2vvc/2vvc_pocket.pdb
REMARK  225 active torsions:
REMARK  status: ('A' for Active; 'I' for Inactive)
REMARK    1  A    between atoms: _1  and  _5
REMARK    2  A    between atoms: _5  and  _6
REMARK    3  A    between atoms: _5  and  _8
REMARK    4  A    between atoms: _8  and  _9
REMARK    5  A    between atoms: _12  and  _14
REMARK    6  A    between atoms: _14  and  _15
REMARK    7  A    between atoms: _14  and  _17
REMARK    8  A    between atoms: _20  and  _22
REMARK    9  A    between atoms: _22  and  _23
REMARK   10  A    between atoms: _22  and  _25
REMARK   11  A    between atoms: _25  and  _26
REMARK   12  A    between atoms: _31  and  _33
REMARK   13  A    between atoms: _33  and  _34
REMARK   14  A    between atoms: _33  and  _36
REMARK   15  A    between atoms: _36  and  _37
REMARK   16  A    between atoms: _37  and  _38
REMARK   17  A    between atoms: _43  and  _45
REMARK   18  A    between atoms: _45  and  _46
REMARK   19  A    between atoms: _45  and  _48
REMARK   20  A    between atoms: _48  and  _49
REMARK   21  A    between atoms: _55  and  _57
REMARK   22  A    between atoms: _57  and  _58
REMARK   23  A    between atoms: _57  and  _60
REMARK   24  A    between atoms: _60  and  _61
REMARK   25  A    between atoms: _64  and  _66
REMARK   26  A    between atoms: _66  and  _67
REMARK   27  A    between atoms: _66  and  _69
REMARK   28  A    between atoms: _69  and  _70
REMARK   29  A    between atoms: _70  and  _71
REMARK   30  A    between atoms: _71  and  _72
REMARK   31  A    between atoms: _72  and  _73
REMARK   32  A    between atoms: _77  and  _79
REMARK   33  A    between atoms: _79  and  _80
REMARK   34  A    between atoms: _79  and  _82
REMARK   35  A    between atoms: _82  and  _83
REMARK   36  A    between atoms: _83  and  _84
REMARK   37  A    between atoms: _87  and  _89
REMARK   38  A    between atoms: _89  and  _90
REMARK   39  A    between atoms: _89  and  _92
REMARK   40  A    between atoms: _92  and  _93
REMARK   41  A    between atoms: _96  and  _98
REMARK   42  A    between atoms: _98  and  _99
REMARK   43  A    between atoms: _98  and  _101
REMARK   44  A    between atoms: _101  and  _102
REMARK   45  A    between atoms: _107  and  _108
REMARK   46  A    between atoms: _110  and  _112
REMARK   47  A    between atoms: _112  and  _113
REMARK   48  A    between atoms: _112  and  _115
REMARK   49  A    between atoms: _115  and  _116
REMARK   50  A    between atoms: _119  and  _121
REMARK   51  A    between atoms: _121  and  _122
REMARK   52  A    between atoms: _121  and  _124
REMARK   53  A    between atoms: _124  and  _125
REMARK   54  A    between atoms: _128  and  _130
REMARK   55  A    between atoms: _130  and  _131
REMARK   56  A    between atoms: _130  and  _133
REMARK   57  A    between atoms: _136  and  _138
REMARK   58  A    between atoms: _138  and  _139
REMARK   59  A    between atoms: _138  and  _141
REMARK   60  A    between atoms: _141  and  _142
REMARK   61  A    between atoms: _142  and  _143
REMARK   62  A    between atoms: _143  and  _144
REMARK   63  A    between atoms: _153  and  _155
REMARK   64  A    between atoms: _155  and  _156
REMARK   65  A    between atoms: _155  and  _158
REMARK   66  A    between atoms: _158  and  _159
REMARK   67  A    between atoms: _164  and  _166
REMARK   68  A    between atoms: _166  and  _167
REMARK   69  A    between atoms: _166  and  _169
REMARK   70  A    between atoms: _169  and  _170
REMARK   71  A    between atoms: _170  and  _171
REMARK   72  A    between atoms: _174  and  _176
REMARK   73  A    between atoms: _176  and  _177
REMARK   74  A    between atoms: _176  and  _179
REMARK   75  A    between atoms: _179  and  _180
REMARK   76  A    between atoms: _180  and  _181
REMARK   77  A    between atoms: _181  and  _182
REMARK   78  A    between atoms: _182  and  _183
REMARK   79  A    between atoms: _187  and  _189
REMARK   80  A    between atoms: _189  and  _190
REMARK   81  A    between atoms: _192  and  _194
REMARK   82  A    between atoms: _194  and  _195
REMARK   83  A    between atoms: _194  and  _197
REMARK   84  A    between atoms: _200  and  _202
REMARK   85  A    between atoms: _202  and  _203
REMARK   86  A    between atoms: _202  and  _205
REMARK   87  A    between atoms: _205  and  _206
REMARK   88  A    between atoms: _208  and  _210
REMARK   89  A    between atoms: _210  and  _211
REMARK   90  A    between atoms: _210  and  _213
REMARK   91  A    between atoms: _213  and  _214
REMARK   92  A    between atoms: _216  and  _218
REMARK   93  A    between atoms: _218  and  _219
REMARK   94  A    between atoms: _218  and  _221
REMARK   95  A    between atoms: _221  and  _222
REMARK   96  A    between atoms: _228  and  _230
REMARK   97  A    between atoms: _230  and  _231
REMARK   98  A    between atoms: _230  and  _233
REMARK   99  A    between atoms: _233  and  _234
REMARK  100  A    between atoms: _237  and  _239
REMARK  101  A    between atoms: _239  and  _240
REMARK  102  A    between atoms: _239  and  _242
REMARK  103  A    between atoms: _242  and  _243
REMARK  104  A    between atoms: _246  and  _248
REMARK  105  A    between atoms: _248  and  _249
REMARK  106  A    between atoms: _248  and  _251
REMARK  107  A    between atoms: _251  and  _252
REMARK  108  A    between atoms: _255  and  _257
REMARK  109  A    between atoms: _257  and  _258
REMARK  110  A    between atoms: _257  and  _260
REMARK  111  A    between atoms: _260  and  _261
REMARK  112  A    between atoms: _261  and  _262
REMARK  113  A    between atoms: _264  and  _266
REMARK  114  A    between atoms: _266  and  _267
REMARK  115  A    between atoms: _266  and  _269
REMARK  116  A    between atoms: _269  and  _270
REMARK  117  A    between atoms: _276  and  _278
REMARK  118  A    between atoms: _278  and  _279
REMARK  119  A    between atoms: _278  and  _281
REMARK  120  A    between atoms: _283  and  _285
REMARK  121  A    between atoms: _285  and  _286
REMARK  122  A    between atoms: _289  and  _291
REMARK  123  A    between atoms: _291  and  _292
REMARK  124  A    between atoms: _294  and  _296
REMARK  125  A    between atoms: _296  and  _297
REMARK  126  A    between atoms: _296  and  _299
REMARK  127  A    between atoms: _299  and  _300
REMARK  128  A    between atoms: _300  and  _301
REMARK  129  A    between atoms: _304  and  _306
REMARK  130  A    between atoms: _306  and  _307
REMARK  131  A    between atoms: _306  and  _309
REMARK  132  A    between atoms: _309  and  _310
REMARK  133  A    between atoms: _313  and  _315
REMARK  134  A    between atoms: _315  and  _316
REMARK  135  A    between atoms: _319  and  _321
REMARK  136  A    between atoms: _321  and  _322
REMARK  137  A    between atoms: _321  and  _324
REMARK  138  A    between atoms: _324  and  _325
REMARK  139  A    between atoms: _325  and  _448
REMARK  140  A    between atoms: _326  and  _328
REMARK  141  A    between atoms: _328  and  _329
REMARK  142  A    between atoms: _328  and  _331
REMARK  143  A    between atoms: _331  and  _332
REMARK  144  A    between atoms: _332  and  _333
REMARK  145  A    between atoms: _338  and  _340
REMARK  146  A    between atoms: _340  and  _341
REMARK  147  A    between atoms: _343  and  _345
REMARK  148  A    between atoms: _345  and  _346
REMARK  149  A    between atoms: _345  and  _348
REMARK  150  A    between atoms: _348  and  _349
REMARK  151  A    between atoms: _352  and  _354
REMARK  152  A    between atoms: _354  and  _355
REMARK  153  A    between atoms: _354  and  _357
REMARK  154  A    between atoms: _357  and  _358
REMARK  155  A    between atoms: _360  and  _362
REMARK  156  A    between atoms: _362  and  _363
REMARK  157  A    between atoms: _365  and  _367
REMARK  158  A    between atoms: _367  and  _368
REMARK  159  A    between atoms: _370  and  _372
REMARK  160  A    between atoms: _372  and  _373
REMARK  161  A    between atoms: _372  and  _375
REMARK  162  A    between atoms: _375  and  _376
REMARK  163  A    between atoms: _381  and  _383
REMARK  164  A    between atoms: _383  and  _384
REMARK  165  A    between atoms: _383  and  _386
REMARK  166  A    between atoms: _386  and  _387
REMARK  167  A    between atoms: _390  and  _392
REMARK  168  A    between atoms: _392  and  _393
REMARK  169  A    between atoms: _392  and  _395
REMARK  170  A    between atoms: _398  and  _400
REMARK  171  A    between atoms: _400  and  _401
REMARK  172  A    between atoms: _400  and  _403
REMARK  173  A    between atoms: _403  and  _404
REMARK  174  A    between atoms: _406  and  _408
REMARK  175  A    between atoms: _408  and  _409
REMARK  176  A    between atoms: _408  and  _411
REMARK  177  A    between atoms: _411  and  _412
REMARK  178  A    between atoms: _422  and  _424
REMARK  179  A    between atoms: _424  and  _425
REMARK  180  A    between atoms: _427  and  _429
REMARK  181  A    between atoms: _429  and  _430
REMARK  182  A    between atoms: _429  and  _432
REMARK  183  A    between atoms: _432  and  _433
REMARK  184  A    between atoms: _433  and  _434
REMARK  185  A    between atoms: _437  and  _439
REMARK  186  A    between atoms: _439  and  _440
REMARK  187  A    between atoms: _442  and  _444
REMARK  188  A    between atoms: _444  and  _445
REMARK  189  A    between atoms: _444  and  _447
REMARK  190  A    between atoms: _447  and  _448
REMARK  191  A    between atoms: _449  and  _451
REMARK  192  A    between atoms: _451  and  _452
REMARK  193  A    between atoms: _455  and  _457
REMARK  194  A    between atoms: _457  and  _458
REMARK  195  A    between atoms: _457  and  _460
REMARK  196  A    between atoms: _460  and  _461
REMARK  197  A    between atoms: _461  and  _462
REMARK  198  A    between atoms: _462  and  _463
REMARK  199  A    between atoms: _472  and  _474
REMARK  200  A    between atoms: _474  and  _475
REMARK  201  A    between atoms: _474  and  _477
REMARK  202  A    between atoms: _477  and  _478
REMARK  203  A    between atoms: _478  and  _479
REMARK  204  A    between atoms: _479  and  _480
REMARK  205  A    between atoms: _480  and  _481
REMARK  206  A    between atoms: _485  and  _487
REMARK  207  A    between atoms: _487  and  _488
REMARK  208  A    between atoms: _487  and  _490
REMARK  209  A    between atoms: _490  and  _491
REMARK  210  A    between atoms: _496  and  _497
REMARK  211  A    between atoms: _499  and  _501
REMARK  212  A    between atoms: _501  and  _502
REMARK  213  A    between atoms: _504  and  _506
REMARK  214  A    between atoms: _506  and  _507
REMARK  215  A    between atoms: _506  and  _509
REMARK  216  A    between atoms: _509  and  _510
REMARK  217  A    between atoms: _513  and  _515
REMARK  218  A    between atoms: _515  and  _516
REMARK  219  A    between atoms: _515  and  _518
REMARK  220  A    between atoms: _518  and  _519
REMARK  221  A    between atoms: _524  and  _525
REMARK  222  A    between atoms: _527  and  _529
REMARK  223  A    between atoms: _529  and  _530
REMARK  224  A    between atoms: _529  and  _532
REMARK  225  A    between atoms: _532  and  _533
REMARK                            x       y       z     vdW  Elec       q    Type
REMARK                         _______ _______ _______ _____ _____    ______ ____
ROOT
ATOM      1  O   HOH     1      19.825   2.474  33.988  0.00  0.00    +0.000 OA
ENDROOT
TORSDOF 0
REMARK  Name = ../refined-set-2016/2vvc/2vvc_pocket.pdb
REMARK  225 active torsions:
REMARK  status: ('A' for Active; 'I' for Inactive)
REMARK    1  A    between atoms: _1  and  _5
REMARK    2  A    between atoms: _5  and  _6
REMARK    3  A    between atoms: _5  and  _8
REMARK    4  A    between atoms: _8  and  _9
REMARK    5  A    between atoms: _12  and  _14
REMARK    6  A    between atoms: _14  and  _15
REMARK    7  A    between atoms: _14  and  _17
REMARK    8  A    between atoms: _20  and  _22
REMARK    9  A    between atoms: _22  and  _23
REMARK   10  A    between atoms: _22  and  _25
REMARK   11  A    between atoms: _25  and  _26
REMARK   12  A    between atoms: _31  and  _33
REMARK   13  A    between atoms: _33  and  _34
REMARK   14  A    between atoms: _33  and  _36
REMARK   15  A    between atoms: _36  and  _37
REMARK   16  A    between atoms: _37  and  _38
REMARK   17  A    between atoms: _43  and  _45
REMARK   18  A    between atoms: _45  and  _46
REMARK   19  A    between atoms: _45  and  _48
REMARK   20  A    between atoms: _48  and  _49
REMARK   21  A    between atoms: _55  and  _57
REMARK   22  A    between atoms: _57  and  _58
REMARK   23  A    between atoms: _57  and  _60
REMARK   24  A    between atoms: _60  and  _61
REMARK   25  A    between atoms: _64  and  _66
REMARK   26  A    between atoms: _66  and  _67
REMARK   27  A    between atoms: _66  and  _69
REMARK   28  A    between atoms: _69  and  _70
REMARK   29  A    between atoms: _70  and  _71
REMARK   30  A    between atoms: _71  and  _72
REMARK   31  A    between atoms: _72  and  _73
REMARK   32  A    between atoms: _77  and  _79
REMARK   33  A    between atoms: _79  and  _80
REMARK   34  A    between atoms: _79  and  _82
REMARK   35  A    between atoms: _82  and  _83
REMARK   36  A    between atoms: _83  and  _84
REMARK   37  A    between atoms: _87  and  _89
REMARK   38  A    between atoms: _89  and  _90
REMARK   39  A    between atoms: _89  and  _92
REMARK   40  A    between atoms: _92  and  _93
REMARK   41  A    between atoms: _96  and  _98
REMARK   42  A    between atoms: _98  and  _99
REMARK   43  A    between atoms: _98  and  _101
REMARK   44  A    between atoms: _101  and  _102
REMARK   45  A    between atoms: _107  and  _108
REMARK   46  A    between atoms: _110  and  _112
REMARK   47  A    between atoms: _112  and  _113
REMARK   48  A    between atoms: _112  and  _115
REMARK   49  A    between atoms: _115  and  _116
REMARK   50  A    between atoms: _119  and  _121
REMARK   51  A    between atoms: _121  and  _122
REMARK   52  A    between atoms: _121  and  _124
REMARK   53  A    between atoms: _124  and  _125
REMARK   54  A    between atoms: _128  and  _130
REMARK   55  A    between atoms: _130  and  _131
REMARK   56  A    between atoms: _130  and  _133
REMARK   57  A    between atoms: _136  and  _138
REMARK   58  A    between atoms: _138  and  _139
REMARK   59  A    between atoms: _138  and  _141
REMARK   60  A    between atoms: _141  and  _142
REMARK   61  A    between atoms: _142  and  _143
REMARK   62  A    between atoms: _143  and  _144
REMARK   63  A    between atoms: _153  and  _155
REMARK   64  A    between atoms: _155  and  _156
REMARK   65  A    between atoms: _155  and  _158
REMARK   66  A    between atoms: _158  and  _159
REMARK   67  A    between atoms: _164  and  _166
REMARK   68  A    between atoms: _166  and  _167
REMARK   69  A    between atoms: _166  and  _169
REMARK   70  A    between atoms: _169  and  _170
REMARK   71  A    between atoms: _170  and  _171
REMARK   72  A    between atoms: _174  and  _176
REMARK   73  A    between atoms: _176  and  _177
REMARK   74  A    between atoms: _176  and  _179
REMARK   75  A    between atoms: _179  and  _180
REMARK   76  A    between atoms: _180  and  _181
REMARK   77  A    between atoms: _181  and  _182
REMARK   78  A    between atoms: _182  and  _183
REMARK   79  A    between atoms: _187  and  _189
REMARK   80  A    between atoms: _189  and  _190
REMARK   81  A    between atoms: _192  and  _194
REMARK   82  A    between atoms: _194  and  _195
REMARK   83  A    between atoms: _194  and  _197
REMARK   84  A    between atoms: _200  and  _202
REMARK   85  A    between atoms: _202  and  _203
REMARK   86  A    between atoms: _202  and  _205
REMARK   87  A    between atoms: _205  and  _206
REMARK   88  A    between atoms: _208  and  _210
REMARK   89  A    between atoms: _210  and  _211
REMARK   90  A    between atoms: _210  and  _213
REMARK   91  A    between atoms: _213  and  _214
REMARK   92  A    between atoms: _216  and  _218
REMARK   93  A    between atoms: _218  and  _219
REMARK   94  A    between atoms: _218  and  _221
REMARK   95  A    between atoms: _221  and  _222
REMARK   96  A    between atoms: _228  and  _230
REMARK   97  A    between atoms: _230  and  _231
REMARK   98  A    between atoms: _230  and  _233
REMARK   99  A    between atoms: _233  and  _234
REMARK  100  A    between atoms: _237  and  _239
REMARK  101  A    between atoms: _239  and  _240
REMARK  102  A    between atoms: _239  and  _242
REMARK  103  A    between atoms: _242  and  _243
REMARK  104  A    between atoms: _246  and  _248
REMARK  105  A    between atoms: _248  and  _249
REMARK  106  A    between atoms: _248  and  _251
REMARK  107  A    between atoms: _251  and  _252
REMARK  108  A    between atoms: _255  and  _257
REMARK  109  A    between atoms: _257  and  _258
REMARK  110  A    between atoms: _257  and  _260
REMARK  111  A    between atoms: _260  and  _261
REMARK  112  A    between atoms: _261  and  _262
REMARK  113  A    between atoms: _264  and  _266
REMARK  114  A    between atoms: _266  and  _267
REMARK  115  A    between atoms: _266  and  _269
REMARK  116  A    between atoms: _269  and  _270
REMARK  117  A    between atoms: _276  and  _278
REMARK  118  A    between atoms: _278  and  _279
REMARK  119  A    between atoms: _278  and  _281
REMARK  120  A    between atoms: _283  and  _285
REMARK  121  A    between atoms: _285  and  _286
REMARK  122  A    between atoms: _289  and  _291
REMARK  123  A    between atoms: _291  and  _292
REMARK  124  A    between atoms: _294  and  _296
REMARK  125  A    between atoms: _296  and  _297
REMARK  126  A    between atoms: _296  and  _299
REMARK  127  A    between atoms: _299  and  _300
REMARK  128  A    between atoms: _300  and  _301
REMARK  129  A    between atoms: _304  and  _306
REMARK  130  A    between atoms: _306  and  _307
REMARK  131  A    between atoms: _306  and  _309
REMARK  132  A    between atoms: _309  and  _310
REMARK  133  A    between atoms: _313  and  _315
REMARK  134  A    between atoms: _315  and  _316
REMARK  135  A    between atoms: _319  and  _321
REMARK  136  A    between atoms: _321  and  _322
REMARK  137  A    between atoms: _321  and  _324
REMARK  138  A    between atoms: _324  and  _325
REMARK  139  A    between atoms: _325  and  _448
REMARK  140  A    between atoms: _326  and  _328
REMARK  141  A    between atoms: _328  and  _329
REMARK  142  A    between atoms: _328  and  _331
REMARK  143  A    between atoms: _331  and  _332
REMARK  144  A    between atoms: _332  and  _333
REMARK  145  A    between atoms: _338  and  _340
REMARK  146  A    between atoms: _340  and  _341
REMARK  147  A    between atoms: _343  and  _345
REMARK  148  A    between atoms: _345  and  _346
REMARK  149  A    between atoms: _345  and  _348
REMARK  150  A    between atoms: _348  and  _349
REMARK  151  A    between atoms: _352  and  _354
REMARK  152  A    between atoms: _354  and  _355
REMARK  153  A    between atoms: _354  and  _357
REMARK  154  A    between atoms: _357  and  _358
REMARK  155  A    between atoms: _360  and  _362
REMARK  156  A    between atoms: _362  and  _363
REMARK  157  A    between atoms: _365  and  _367
REMARK  158  A    between atoms: _367  and  _368
REMARK  159  A    between atoms: _370  and  _372
REMARK  160  A    between atoms: _372  and  _373
REMARK  161  A    between atoms: _372  and  _375
REMARK  162  A    between atoms: _375  and  _376
REMARK  163  A    between atoms: _381  and  _383
REMARK  164  A    between atoms: _383  and  _384
REMARK  165  A    between atoms: _383  and  _386
REMARK  166  A    between atoms: _386  and  _387
REMARK  167  A    between atoms: _390  and  _392
REMARK  168  A    between atoms: _392  and  _393
REMARK  169  A    between atoms: _392  and  _395
REMARK  170  A    between atoms: _398  and  _400
REMARK  171  A    between atoms: _400  and  _401
REMARK  172  A    between atoms: _400  and  _403
REMARK  173  A    between atoms: _403  and  _404
REMARK  174  A    between atoms: _406  and  _408
REMARK  175  A    between atoms: _408  and  _409
REMARK  176  A    between atoms: _408  and  _411
REMARK  177  A    between atoms: _411  and  _412
REMARK  178  A    between atoms: _422  and  _424
REMARK  179  A    between atoms: _424  and  _425
REMARK  180  A    between atoms: _427  and  _429
REMARK  181  A    between atoms: _429  and  _430
REMARK  182  A    between atoms: _429  and  _432
REMARK  183  A    between atoms: _432  and  _433
REMARK  184  A    between atoms: _433  and  _434
REMARK  185  A    between atoms: _437  and  _439
REMARK  186  A    between atoms: _439  and  _440
REMARK  187  A    between atoms: _442  and  _444
REMARK  188  A    between atoms: _444  and  _445
REMARK  189  A    between atoms: _444  and  _447
REMARK  190  A    between atoms: _447  and  _448
REMARK  191  A    between atoms: _449  and  _451
REMARK  192  A    between atoms: _451  and  _452
REMARK  193  A    between atoms: _455  and  _457
REMARK  194  A    between atoms: _457  and  _458
REMARK  195  A    between atoms: _457  and  _460
REMARK  196  A    between atoms: _460  and  _461
REMARK  197  A    between atoms: _461  and  _462
REMARK  198  A    between atoms: _462  and  _463
REMARK  199  A    between atoms: _472  and  _474
REMARK  200  A    between atoms: _474  and  _475
REMARK  201  A    between atoms: _474  and  _477
REMARK  202  A    between atoms: _477  and  _478
REMARK  203  A    between atoms: _478  and  _479
REMARK  204  A    between atoms: _479  and  _480
REMARK  205  A    between atoms: _480  and  _481
REMARK  206  A    between atoms: _485  and  _487
REMARK  207  A    between atoms: _487  and  _488
REMARK  208  A    between atoms: _487  and  _490
REMARK  209  A    between atoms: _490  and  _491
REMARK  210  A    between atoms: _496  and  _497
REMARK  211  A    between atoms: _499  and  _501
REMARK  212  A    between atoms: _501  and  _502
REMARK  213  A    between atoms: _504  and  _506
REMARK  214  A    between atoms: _506  and  _507
REMARK  215  A    between atoms: _506  and  _509
REMARK  216  A    between atoms: _509  and  _510
REMARK  217  A    between atoms: _513  and  _515
REMARK  218  A    between atoms: _515  and  _516
REMARK  219  A    between atoms: _515  and  _518
REMARK  220  A    between atoms: _518  and  _519
REMARK  221  A    between atoms: _524  and  _525
REMARK  222  A    between atoms: _527  and  _529
REMARK  223  A    between atoms: _529  and  _530
REMARK  224  A    between atoms: _529  and  _532
REMARK  225  A    between atoms: _532  and  _533
REMARK                            x       y       z     vdW  Elec       q    Type
REMARK                         _______ _______ _______ _____ _____    ______ ____
ROOT
ATOM      1  O   HOH     1      18.504   4.296  24.934  0.00  0.00    +0.000 OA
ENDROOT
TORSDOF 0
REMARK  Name = ../refined-set-2016/2vvc/2vvc_pocket.pdb
REMARK  225 active torsions:
REMARK  status: ('A' for Active; 'I' for Inactive)
REMARK    1  A    between atoms: _1  and  _5
REMARK    2  A    between atoms: _5  and  _6
REMARK    3  A    between atoms: _5  and  _8
REMARK    4  A    between atoms: _8  and  _9
REMARK    5  A    between atoms: _12  and  _14
REMARK    6  A    between atoms: _14  and  _15
REMARK    7  A    between atoms: _14  and  _17
REMARK    8  A    between atoms: _20  and  _22
REMARK    9  A    between atoms: _22  and  _23
REMARK   10  A    between atoms: _22  and  _25
REMARK   11  A    between atoms: _25  and  _26
REMARK   12  A    between atoms: _31  and  _33
REMARK   13  A    between atoms: _33  and  _34
REMARK   14  A    between atoms: _33  and  _36
REMARK   15  A    between atoms: _36  and  _37
REMARK   16  A    between atoms: _37  and  _38
REMARK   17  A    between atoms: _43  and  _45
REMARK   18  A    between atoms: _45  and  _46
REMARK   19  A    between atoms: _45  and  _48
REMARK   20  A    between atoms: _48  and  _49
REMARK   21  A    between atoms: _55  and  _57
REMARK   22  A    between atoms: _57  and  _58
REMARK   23  A    between atoms: _57  and  _60
REMARK   24  A    between atoms: _60  and  _61
REMARK   25  A    between atoms: _64  and  _66
REMARK   26  A    between atoms: _66  and  _67
REMARK   27  A    between atoms: _66  and  _69
REMARK   28  A    between atoms: _69  and  _70
REMARK   29  A    between atoms: _70  and  _71
REMARK   30  A    between atoms: _71  and  _72
REMARK   31  A    between atoms: _72  and  _73
REMARK   32  A    between atoms: _77  and  _79
REMARK   33  A    between atoms: _79  and  _80
REMARK   34  A    between atoms: _79  and  _82
REMARK   35  A    between atoms: _82  and  _83
REMARK   36  A    between atoms: _83  and  _84
REMARK   37  A    between atoms: _87  and  _89
REMARK   38  A    between atoms: _89  and  _90
REMARK   39  A    between atoms: _89  and  _92
REMARK   40  A    between atoms: _92  and  _93
REMARK   41  A    between atoms: _96  and  _98
REMARK   42  A    between atoms: _98  and  _99
REMARK   43  A    between atoms: _98  and  _101
REMARK   44  A    between atoms: _101  and  _102
REMARK   45  A    between atoms: _107  and  _108
REMARK   46  A    between atoms: _110  and  _112
REMARK   47  A    between atoms: _112  and  _113
REMARK   48  A    between atoms: _112  and  _115
REMARK   49  A    between atoms: _115  and  _116
REMARK   50  A    between atoms: _119  and  _121
REMARK   51  A    between atoms: _121  and  _122
REMARK   52  A    between atoms: _121  and  _124
REMARK   53  A    between atoms: _124  and  _125
REMARK   54  A    between atoms: _128  and  _130
REMARK   55  A    between atoms: _130  and  _131
REMARK   56  A    between atoms: _130  and  _133
REMARK   57  A    between atoms: _136  and  _138
REMARK   58  A    between atoms: _138  and  _139
REMARK   59  A    between atoms: _138  and  _141
REMARK   60  A    between atoms: _141  and  _142
REMARK   61  A    between atoms: _142  and  _143
REMARK   62  A    between atoms: _143  and  _144
REMARK   63  A    between atoms: _153  and  _155
REMARK   64  A    between atoms: _155  and  _156
REMARK   65  A    between atoms: _155  and  _158
REMARK   66  A    between atoms: _158  and  _159
REMARK   67  A    between atoms: _164  and  _166
REMARK   68  A    between atoms: _166  and  _167
REMARK   69  A    between atoms: _166  and  _169
REMARK   70  A    between atoms: _169  and  _170
REMARK   71  A    between atoms: _170  and  _171
REMARK   72  A    between atoms: _174  and  _176
REMARK   73  A    between atoms: _176  and  _177
REMARK   74  A    between atoms: _176  and  _179
REMARK   75  A    between atoms: _179  and  _180
REMARK   76  A    between atoms: _180  and  _181
REMARK   77  A    between atoms: _181  and  _182
REMARK   78  A    between atoms: _182  and  _183
REMARK   79  A    between atoms: _187  and  _189
REMARK   80  A    between atoms: _189  and  _190
REMARK   81  A    between atoms: _192  and  _194
REMARK   82  A    between atoms: _194  and  _195
REMARK   83  A    between atoms: _194  and  _197
REMARK   84  A    between atoms: _200  and  _202
REMARK   85  A    between atoms: _202  and  _203
REMARK   86  A    between atoms: _202  and  _205
REMARK   87  A    between atoms: _205  and  _206
REMARK   88  A    between atoms: _208  and  _210
REMARK   89  A    between atoms: _210  and  _211
REMARK   90  A    between atoms: _210  and  _213
REMARK   91  A    between atoms: _213  and  _214
REMARK   92  A    between atoms: _216  and  _218
REMARK   93  A    between atoms: _218  and  _219
REMARK   94  A    between atoms: _218  and  _221
REMARK   95  A    between atoms: _221  and  _222
REMARK   96  A    between atoms: _228  and  _230
REMARK   97  A    between atoms: _230  and  _231
REMARK   98  A    between atoms: _230  and  _233
REMARK   99  A    between atoms: _233  and  _234
REMARK  100  A    between atoms: _237  and  _239
REMARK  101  A    between atoms: _239  and  _240
REMARK  102  A    between atoms: _239  and  _242
REMARK  103  A    between atoms: _242  and  _243
REMARK  104  A    between atoms: _246  and  _248
REMARK  105  A    between atoms: _248  and  _249
REMARK  106  A    between atoms: _248  and  _251
REMARK  107  A    between atoms: _251  and  _252
REMARK  108  A    between atoms: _255  and  _257
REMARK  109  A    between atoms: _257  and  _258
REMARK  110  A    between atoms: _257  and  _260
REMARK  111  A    between atoms: _260  and  _261
REMARK  112  A    between atoms: _261  and  _262
REMARK  113  A    between atoms: _264  and  _266
REMARK  114  A    between atoms: _266  and  _267
REMARK  115  A    between atoms: _266  and  _269
REMARK  116  A    between atoms: _269  and  _270
REMARK  117  A    between atoms: _276  and  _278
REMARK  118  A    between atoms: _278  and  _279
REMARK  119  A    between atoms: _278  and  _281
REMARK  120  A    between atoms: _283  and  _285
REMARK  121  A    between atoms: _285  and  _286
REMARK  122  A    between atoms: _289  and  _291
REMARK  123  A    between atoms: _291  and  _292
REMARK  124  A    between atoms: _294  and  _296
REMARK  125  A    between atoms: _296  and  _297
REMARK  126  A    between atoms: _296  and  _299
REMARK  127  A    between atoms: _299  and  _300
REMARK  128  A    between atoms: _300  and  _301
REMARK  129  A    between atoms: _304  and  _306
REMARK  130  A    between atoms: _306  and  _307
REMARK  131  A    between atoms: _306  and  _309
REMARK  132  A    between atoms: _309  and  _310
REMARK  133  A    between atoms: _313  and  _315
REMARK  134  A    between atoms: _315  and  _316
REMARK  135  A    between atoms: _319  and  _321
REMARK  136  A    between atoms: _321  and  _322
REMARK  137  A    between atoms: _321  and  _324
REMARK  138  A    between atoms: _324  and  _325
REMARK  139  A    between atoms: _325  and  _448
REMARK  140  A    between atoms: _326  and  _328
REMARK  141  A    between atoms: _328  and  _329
REMARK  142  A    between atoms: _328  and  _331
REMARK  143  A    between atoms: _331  and  _332
REMARK  144  A    between atoms: _332  and  _333
REMARK  145  A    between atoms: _338  and  _340
REMARK  146  A    between atoms: _340  and  _341
REMARK  147  A    between atoms: _343  and  _345
REMARK  148  A    between atoms: _345  and  _346
REMARK  149  A    between atoms: _345  and  _348
REMARK  150  A    between atoms: _348  and  _349
REMARK  151  A    between atoms: _352  and  _354
REMARK  152  A    between atoms: _354  and  _355
REMARK  153  A    between atoms: _354  and  _357
REMARK  154  A    between atoms: _357  and  _358
REMARK  155  A    between atoms: _360  and  _362
REMARK  156  A    between atoms: _362  and  _363
REMARK  157  A    between atoms: _365  and  _367
REMARK  158  A    between atoms: _367  and  _368
REMARK  159  A    between atoms: _370  and  _372
REMARK  160  A    between atoms: _372  and  _373
REMARK  161  A    between atoms: _372  and  _375
REMARK  162  A    between atoms: _375  and  _376
REMARK  163  A    between atoms: _381  and  _383
REMARK  164  A    between atoms: _383  and  _384
REMARK  165  A    between atoms: _383  and  _386
REMARK  166  A    between atoms: _386  and  _387
REMARK  167  A    between atoms: _390  and  _392
REMARK  168  A    between atoms: _392  and  _393
REMARK  169  A    between atoms: _392  and  _395
REMARK  170  A    between atoms: _398  and  _400
REMARK  171  A    between atoms: _400  and  _401
REMARK  172  A    between atoms: _400  and  _403
REMARK  173  A    between atoms: _403  and  _404
REMARK  174  A    between atoms: _406  and  _408
REMARK  175  A    between atoms: _408  and  _409
REMARK  176  A    between atoms: _408  and  _411
REMARK  177  A    between atoms: _411  and  _412
REMARK  178  A    between atoms: _422  and  _424
REMARK  179  A    between atoms: _424  and  _425
REMARK  180  A    between atoms: _427  and  _429
REMARK  181  A    between atoms: _429  and  _430
REMARK  182  A    between atoms: _429  and  _432
REMARK  183  A    between atoms: _432  and  _433
REMARK  184  A    between atoms: _433  and  _434
REMARK  185  A    between atoms: _437  and  _439
REMARK  186  A    between atoms: _439  and  _440
REMARK  187  A    between atoms: _442  and  _444
REMARK  188  A    between atoms: _444  and  _445
REMARK  189  A    between atoms: _444  and  _447
REMARK  190  A    between atoms: _447  and  _448
REMARK  191  A    between atoms: _449  and  _451
REMARK  192  A    between atoms: _451  and  _452
REMARK  193  A    between atoms: _455  and  _457
REMARK  194  A    between atoms: _457  and  _458
REMARK  195  A    between atoms: _457  and  _460
REMARK  196  A    between atoms: _460  and  _461
REMARK  197  A    between atoms: _461  and  _462
REMARK  198  A    between atoms: _462  and  _463
REMARK  199  A    between atoms: _472  and  _474
REMARK  200  A    between atoms: _474  and  _475
REMARK  201  A    between atoms: _474  and  _477
REMARK  202  A    between atoms: _477  and  _478
REMARK  203  A    between atoms: _478  and  _479
REMARK  204  A    between atoms: _479  and  _480
REMARK  205  A    between atoms: _480  and  _481
REMARK  206  A    between atoms: _485  and  _487
REMARK  207  A    between atoms: _487  and  _488
REMARK  208  A    between atoms: _487  and  _490
REMARK  209  A    between atoms: _490  and  _491
REMARK  210  A    between atoms: _496  and  _497
REMARK  211  A    between atoms: _499  and  _501
REMARK  212  A    between atoms: _501  and  _502
REMARK  213  A    between atoms: _504  and  _506
REMARK  214  A    between atoms: _506  and  _507
REMARK  215  A    between atoms: _506  and  _509
REMARK  216  A    between atoms: _509  and  _510
REMARK  217  A    between atoms: _513  and  _515
REMARK  218  A    between atoms: _515  and  _516
REMARK  219  A    between atoms: _515  and  _518
REMARK  220  A    between atoms: _518  and  _519
REMARK  221  A    between atoms: _524  and  _525
REMARK  222  A    between atoms: _527  and  _529
REMARK  223  A    between atoms: _529  and  _530
REMARK  224  A    between atoms: _529  and  _532
REMARK  225  A    between atoms: _532  and  _533
REMARK                            x       y       z     vdW  Elec       q    Type
REMARK                         _______ _______ _______ _____ _____    ______ ____
ROOT
ATOM      1  O   HOH     1      18.695  -2.168  28.735  0.00  0.00    +0.000 OA
ENDROOT
TORSDOF 0
