REMARK  Name = ../refined-set-2016/1hpx/1hpx_pocket.pdb
REMARK  219 active torsions:
REMARK  status: ('A' for Active; 'I' for Inactive)
REMARK    1  A    between atoms: _1  and  _3
REMARK    2  A    between atoms: _3  and  _4
REMARK    3  A    between atoms: _3  and  _6
REMARK    4  A    between atoms: _6  and  _7
REMARK    5  A    between atoms: _7  and  _8
REMARK    6  A    between atoms: _8  and  _9
REMARK    7  A    between atoms: _18  and  _20
REMARK    8  A    between atoms: _20  and  _21
REMARK    9  A    between atoms: _20  and  _23
REMARK   10  A    between atoms: _23  and  _24
REMARK   11  A    between atoms: _27  and  _29
REMARK   12  A    between atoms: _29  and  _30
REMARK   13  A    between atoms: _29  and  _32
REMARK   14  A    between atoms: _32  and  _33
REMARK   15  A    between atoms: _36  and  _38
REMARK   16  A    between atoms: _38  and  _39
REMARK   17  A    between atoms: _38  and  _41
REMARK   18  A    between atoms: _41  and  _42
REMARK   19  A    between atoms: _45  and  _47
REMARK   20  A    between atoms: _47  and  _48
REMARK   21  A    between atoms: _47  and  _50
REMARK   22  A    between atoms: _50  and  _51
REMARK   23  A    between atoms: _54  and  _56
REMARK   24  A    between atoms: _56  and  _57
REMARK   25  A    between atoms: _59  and  _61
REMARK   26  A    between atoms: _61  and  _62
REMARK   27  A    between atoms: _65  and  _67
REMARK   28  A    between atoms: _67  and  _68
REMARK   29  A    between atoms: _67  and  _70
REMARK   30  A    between atoms: _70  and  _71
REMARK   31  A    between atoms: _74  and  _76
REMARK   32  A    between atoms: _76  and  _77
REMARK   33  A    between atoms: _76  and  _79
REMARK   34  A    between atoms: _79  and  _80
REMARK   35  A    between atoms: _83  and  _85
REMARK   36  A    between atoms: _85  and  _86
REMARK   37  A    between atoms: _85  and  _88
REMARK   38  A    between atoms: _88  and  _89
REMARK   39  A    between atoms: _92  and  _94
REMARK   40  A    between atoms: _94  and  _95
REMARK   41  A    between atoms: _94  and  _97
REMARK   42  A    between atoms: _100  and  _102
REMARK   43  A    between atoms: _102  and  _103
REMARK   44  A    between atoms: _102  and  _105
REMARK   45  A    between atoms: _105  and  _106
REMARK   46  A    between atoms: _106  and  _107
REMARK   47  A    between atoms: _107  and  _108
REMARK   48  A    between atoms: _108  and  _109
REMARK   49  A    between atoms: _113  and  _115
REMARK   50  A    between atoms: _115  and  _116
REMARK   51  A    between atoms: _115  and  _118
REMARK   52  A    between atoms: _118  and  _119
REMARK   53  A    between atoms: _119  and  _120
REMARK   54  A    between atoms: _122  and  _124
REMARK   55  A    between atoms: _124  and  _125
REMARK   56  A    between atoms: _124  and  _127
REMARK   57  A    between atoms: _127  and  _128
REMARK   58  A    between atoms: _131  and  _133
REMARK   59  A    between atoms: _133  and  _134
REMARK   60  A    between atoms: _136  and  _138
REMARK   61  A    between atoms: _138  and  _139
REMARK   62  A    between atoms: _141  and  _143
REMARK   63  A    between atoms: _143  and  _144
REMARK   64  A    between atoms: _143  and  _146
REMARK   65  A    between atoms: _146  and  _147
REMARK   66  A    between atoms: _150  and  _152
REMARK   67  A    between atoms: _152  and  _153
REMARK   68  A    between atoms: _155  and  _157
REMARK   69  A    between atoms: _157  and  _158
REMARK   70  A    between atoms: _160  and  _162
REMARK   71  A    between atoms: _162  and  _163
REMARK   72  A    between atoms: _162  and  _165
REMARK   73  A    between atoms: _165  and  _166
REMARK   74  A    between atoms: _172  and  _174
REMARK   75  A    between atoms: _174  and  _175
REMARK   76  A    between atoms: _174  and  _177
REMARK   77  A    between atoms: _177  and  _178
REMARK   78  A    between atoms: _181  and  _183
REMARK   79  A    between atoms: _183  and  _184
REMARK   80  A    between atoms: _183  and  _186
REMARK   81  A    between atoms: _189  and  _191
REMARK   82  A    between atoms: _191  and  _192
REMARK   83  A    between atoms: _191  and  _194
REMARK   84  A    between atoms: _194  and  _195
REMARK   85  A    between atoms: _198  and  _200
REMARK   86  A    between atoms: _200  and  _201
REMARK   87  A    between atoms: _200  and  _203
REMARK   88  A    between atoms: _203  and  _204
REMARK   89  A    between atoms: _208  and  _209
REMARK   90  A    between atoms: _214  and  _216
REMARK   91  A    between atoms: _216  and  _217
REMARK   92  A    between atoms: _216  and  _219
REMARK   93  A    between atoms: _222  and  _224
REMARK   94  A    between atoms: _224  and  _225
REMARK   95  A    between atoms: _224  and  _227
REMARK   96  A    between atoms: _227  and  _228
REMARK   97  A    between atoms: _233  and  _235
REMARK   98  A    between atoms: _235  and  _236
REMARK   99  A    between atoms: _235  and  _238
REMARK  100  A    between atoms: _238  and  _239
REMARK  101  A    between atoms: _242  and  _244
REMARK  102  A    between atoms: _244  and  _245
REMARK  103  A    between atoms: _244  and  _247
REMARK  104  A    between atoms: _247  and  _248
REMARK  105  A    between atoms: _251  and  _253
REMARK  106  A    between atoms: _253  and  _254
REMARK  107  A    between atoms: _256  and  _258
REMARK  108  A    between atoms: _258  and  _259
REMARK  109  A    between atoms: _258  and  _261
REMARK  110  A    between atoms: _261  and  _262
REMARK  111  A    between atoms: _262  and  _263
REMARK  112  A    between atoms: _263  and  _264
REMARK  113  A    between atoms: _273  and  _275
REMARK  114  A    between atoms: _275  and  _276
REMARK  115  A    between atoms: _275  and  _278
REMARK  116  A    between atoms: _278  and  _279
REMARK  117  A    between atoms: _279  and  _280
REMARK  118  A    between atoms: _280  and  _281
REMARK  119  A    between atoms: _290  and  _292
REMARK  120  A    between atoms: _292  and  _293
REMARK  121  A    between atoms: _292  and  _295
REMARK  122  A    between atoms: _295  and  _296
REMARK  123  A    between atoms: _299  and  _301
REMARK  124  A    between atoms: _301  and  _302
REMARK  125  A    between atoms: _301  and  _304
REMARK  126  A    between atoms: _304  and  _305
REMARK  127  A    between atoms: _308  and  _310
REMARK  128  A    between atoms: _310  and  _311
REMARK  129  A    between atoms: _310  and  _313
REMARK  130  A    between atoms: _313  and  _314
REMARK  131  A    between atoms: _317  and  _319
REMARK  132  A    between atoms: _319  and  _320
REMARK  133  A    between atoms: _319  and  _322
REMARK  134  A    between atoms: _322  and  _323
REMARK  135  A    between atoms: _326  and  _328
REMARK  136  A    between atoms: _328  and  _329
REMARK  137  A    between atoms: _331  and  _333
REMARK  138  A    between atoms: _333  and  _334
REMARK  139  A    between atoms: _337  and  _339
REMARK  140  A    between atoms: _339  and  _340
REMARK  141  A    between atoms: _339  and  _342
REMARK  142  A    between atoms: _342  and  _343
REMARK  143  A    between atoms: _346  and  _348
REMARK  144  A    between atoms: _348  and  _349
REMARK  145  A    between atoms: _348  and  _351
REMARK  146  A    between atoms: _351  and  _352
REMARK  147  A    between atoms: _355  and  _357
REMARK  148  A    between atoms: _357  and  _358
REMARK  149  A    between atoms: _357  and  _360
REMARK  150  A    between atoms: _360  and  _361
REMARK  151  A    between atoms: _364  and  _366
REMARK  152  A    between atoms: _366  and  _367
REMARK  153  A    between atoms: _366  and  _369
REMARK  154  A    between atoms: _372  and  _374
REMARK  155  A    between atoms: _374  and  _375
REMARK  156  A    between atoms: _374  and  _377
REMARK  157  A    between atoms: _377  and  _378
REMARK  158  A    between atoms: _378  and  _379
REMARK  159  A    between atoms: _379  and  _380
REMARK  160  A    between atoms: _380  and  _381
REMARK  161  A    between atoms: _385  and  _387
REMARK  162  A    between atoms: _387  and  _388
REMARK  163  A    between atoms: _387  and  _390
REMARK  164  A    between atoms: _390  and  _391
REMARK  165  A    between atoms: _394  and  _396
REMARK  166  A    between atoms: _396  and  _397
REMARK  167  A    between atoms: _399  and  _401
REMARK  168  A    between atoms: _401  and  _402
REMARK  169  A    between atoms: _404  and  _406
REMARK  170  A    between atoms: _406  and  _407
REMARK  171  A    between atoms: _406  and  _409
REMARK  172  A    between atoms: _409  and  _410
REMARK  173  A    between atoms: _413  and  _415
REMARK  174  A    between atoms: _415  and  _416
REMARK  175  A    between atoms: _418  and  _420
REMARK  176  A    between atoms: _420  and  _421
REMARK  177  A    between atoms: _423  and  _425
REMARK  178  A    between atoms: _425  and  _426
REMARK  179  A    between atoms: _425  and  _428
REMARK  180  A    between atoms: _428  and  _429
REMARK  181  A    between atoms: _435  and  _437
REMARK  182  A    between atoms: _437  and  _438
REMARK  183  A    between atoms: _437  and  _440
REMARK  184  A    between atoms: _440  and  _441
REMARK  185  A    between atoms: _444  and  _446
REMARK  186  A    between atoms: _446  and  _447
REMARK  187  A    between atoms: _446  and  _449
REMARK  188  A    between atoms: _452  and  _454
REMARK  189  A    between atoms: _454  and  _455
REMARK  190  A    between atoms: _454  and  _457
REMARK  191  A    between atoms: _457  and  _458
REMARK  192  A    between atoms: _461  and  _463
REMARK  193  A    between atoms: _463  and  _464
REMARK  194  A    between atoms: _463  and  _466
REMARK  195  A    between atoms: _466  and  _467
REMARK  196  A    between atoms: _471  and  _472
REMARK  197  A    between atoms: _477  and  _479
REMARK  198  A    between atoms: _479  and  _480
REMARK  199  A    between atoms: _479  and  _482
REMARK  200  A    between atoms: _485  and  _487
REMARK  201  A    between atoms: _487  and  _488
REMARK  202  A    between atoms: _487  and  _490
REMARK  203  A    between atoms: _490  and  _491
REMARK  204  A    between atoms: _494  and  _496
REMARK  205  A    between atoms: _496  and  _497
REMARK  206  A    between atoms: _496  and  _499
REMARK  207  A    between atoms: _499  and  _500
REMARK  208  A    between atoms: _503  and  _505
REMARK  209  A    between atoms: _505  and  _506
REMARK  210  A    between atoms: _508  and  _510
REMARK  211  A    between atoms: _510  and  _511
REMARK  212  A    between atoms: _510  and  _513
REMARK  213  A    between atoms: _513  and  _514
REMARK  214  A    between atoms: _514  and  _515
REMARK  215  A    between atoms: _515  and  _516
REMARK  216  A    between atoms: _525  and  _527
REMARK  217  A    between atoms: _527  and  _528
REMARK  218  A    between atoms: _527  and  _530
REMARK  219  A    between atoms: _530  and  _531
REMARK                            x       y       z     vdW  Elec       q    Type
REMARK                         _______ _______ _______ _____ _____    ______ ____
ROOT
ATOM      1  NE  ARG A   1       6.081   8.749  11.325  0.00  0.00    -0.265 N 
ATOM      2  HE  ARG A   1       5.194   8.334  11.675  0.00  0.00    +0.259 HD
ATOM      3  CZ  ARG A   1       6.273   8.879  10.024  0.00  0.00    +0.342 C 
ATOM      4  NH2 ARG A   1       7.462   9.295   9.592  0.00  0.00    -0.292 N 
ATOM      5 HH21 ARG A   1       8.217   9.510  10.274  0.00  0.00    +0.255 HD
ATOM      6 HH22 ARG A   1       7.636   9.405   8.572  0.00  0.00    +0.255 HD
ATOM      7  NH1 ARG A   1       5.255   8.609   9.212  0.00  0.00    -0.292 N 
ATOM      8 HH11 ARG A   1       4.342   8.306   9.606  0.00  0.00    +0.255 HD
ATOM      9 HH12 ARG A   1       5.372   8.701   8.183  0.00  0.00    +0.255 HD
ENDROOT
BRANCH   1  10
ATOM     10  CD  ARG A   1       7.109   9.186  12.284  0.00  0.00    +0.174 C 
BRANCH  10  11
ATOM     11  CG  ARG A   1       6.451   9.838  13.488  0.00  0.00    +0.045 C 
BRANCH  11  12
ATOM     12  CB  ARG A   1       7.424  10.277  14.564  0.00  0.00    +0.029 C 
BRANCH  12  13
ATOM     13  CA  ARG A   1       6.717  10.944  15.732  0.00  0.00    +0.133 C 
BRANCH  13  14
ATOM     14  N   ARG A   1       6.077  12.206  15.320  0.00  0.00    -0.239 NA
ATOM     15  H   ARG A   1       6.213  12.565  14.353  0.00  0.00    +0.142 HD
ENDBRANCH  13  14
BRANCH  13  16
ATOM     16  C   ARG A   1       7.777  11.245  16.731  0.00  0.00    +0.224 C 
ATOM     17  O   ARG A   1       8.519  12.186  16.499  0.00  0.00    -0.287 OA
ENDBRANCH  13  16
ENDBRANCH  12  13
ENDBRANCH  11  12
ENDBRANCH  10  11
ENDBRANCH   1  10
TORSDOF 6
REMARK  Name = ../refined-set-2016/1hpx/1hpx_pocket.pdb
REMARK  219 active torsions:
REMARK  status: ('A' for Active; 'I' for Inactive)
REMARK    1  A    between atoms: _1  and  _3
REMARK    2  A    between atoms: _3  and  _4
REMARK    3  A    between atoms: _3  and  _6
REMARK    4  A    between atoms: _6  and  _7
REMARK    5  A    between atoms: _7  and  _8
REMARK    6  A    between atoms: _8  and  _9
REMARK    7  A    between atoms: _18  and  _20
REMARK    8  A    between atoms: _20  and  _21
REMARK    9  A    between atoms: _20  and  _23
REMARK   10  A    between atoms: _23  and  _24
REMARK   11  A    between atoms: _27  and  _29
REMARK   12  A    between atoms: _29  and  _30
REMARK   13  A    between atoms: _29  and  _32
REMARK   14  A    between atoms: _32  and  _33
REMARK   15  A    between atoms: _36  and  _38
REMARK   16  A    between atoms: _38  and  _39
REMARK   17  A    between atoms: _38  and  _41
REMARK   18  A    between atoms: _41  and  _42
REMARK   19  A    between atoms: _45  and  _47
REMARK   20  A    between atoms: _47  and  _48
REMARK   21  A    between atoms: _47  and  _50
REMARK   22  A    between atoms: _50  and  _51
REMARK   23  A    between atoms: _54  and  _56
REMARK   24  A    between atoms: _56  and  _57
REMARK   25  A    between atoms: _59  and  _61
REMARK   26  A    between atoms: _61  and  _62
REMARK   27  A    between atoms: _65  and  _67
REMARK   28  A    between atoms: _67  and  _68
REMARK   29  A    between atoms: _67  and  _70
REMARK   30  A    between atoms: _70  and  _71
REMARK   31  A    between atoms: _74  and  _76
REMARK   32  A    between atoms: _76  and  _77
REMARK   33  A    between atoms: _76  and  _79
REMARK   34  A    between atoms: _79  and  _80
REMARK   35  A    between atoms: _83  and  _85
REMARK   36  A    between atoms: _85  and  _86
REMARK   37  A    between atoms: _85  and  _88
REMARK   38  A    between atoms: _88  and  _89
REMARK   39  A    between atoms: _92  and  _94
REMARK   40  A    between atoms: _94  and  _95
REMARK   41  A    between atoms: _94  and  _97
REMARK   42  A    between atoms: _100  and  _102
REMARK   43  A    between atoms: _102  and  _103
REMARK   44  A    between atoms: _102  and  _105
REMARK   45  A    between atoms: _105  and  _106
REMARK   46  A    between atoms: _106  and  _107
REMARK   47  A    between atoms: _107  and  _108
REMARK   48  A    between atoms: _108  and  _109
REMARK   49  A    between atoms: _113  and  _115
REMARK   50  A    between atoms: _115  and  _116
REMARK   51  A    between atoms: _115  and  _118
REMARK   52  A    between atoms: _118  and  _119
REMARK   53  A    between atoms: _119  and  _120
REMARK   54  A    between atoms: _122  and  _124
REMARK   55  A    between atoms: _124  and  _125
REMARK   56  A    between atoms: _124  and  _127
REMARK   57  A    between atoms: _127  and  _128
REMARK   58  A    between atoms: _131  and  _133
REMARK   59  A    between atoms: _133  and  _134
REMARK   60  A    between atoms: _136  and  _138
REMARK   61  A    between atoms: _138  and  _139
REMARK   62  A    between atoms: _141  and  _143
REMARK   63  A    between atoms: _143  and  _144
REMARK   64  A    between atoms: _143  and  _146
REMARK   65  A    between atoms: _146  and  _147
REMARK   66  A    between atoms: _150  and  _152
REMARK   67  A    between atoms: _152  and  _153
REMARK   68  A    between atoms: _155  and  _157
REMARK   69  A    between atoms: _157  and  _158
REMARK   70  A    between atoms: _160  and  _162
REMARK   71  A    between atoms: _162  and  _163
REMARK   72  A    between atoms: _162  and  _165
REMARK   73  A    between atoms: _165  and  _166
REMARK   74  A    between atoms: _172  and  _174
REMARK   75  A    between atoms: _174  and  _175
REMARK   76  A    between atoms: _174  and  _177
REMARK   77  A    between atoms: _177  and  _178
REMARK   78  A    between atoms: _181  and  _183
REMARK   79  A    between atoms: _183  and  _184
REMARK   80  A    between atoms: _183  and  _186
REMARK   81  A    between atoms: _189  and  _191
REMARK   82  A    between atoms: _191  and  _192
REMARK   83  A    between atoms: _191  and  _194
REMARK   84  A    between atoms: _194  and  _195
REMARK   85  A    between atoms: _198  and  _200
REMARK   86  A    between atoms: _200  and  _201
REMARK   87  A    between atoms: _200  and  _203
REMARK   88  A    between atoms: _203  and  _204
REMARK   89  A    between atoms: _208  and  _209
REMARK   90  A    between atoms: _214  and  _216
REMARK   91  A    between atoms: _216  and  _217
REMARK   92  A    between atoms: _216  and  _219
REMARK   93  A    between atoms: _222  and  _224
REMARK   94  A    between atoms: _224  and  _225
REMARK   95  A    between atoms: _224  and  _227
REMARK   96  A    between atoms: _227  and  _228
REMARK   97  A    between atoms: _233  and  _235
REMARK   98  A    between atoms: _235  and  _236
REMARK   99  A    between atoms: _235  and  _238
REMARK  100  A    between atoms: _238  and  _239
REMARK  101  A    between atoms: _242  and  _244
REMARK  102  A    between atoms: _244  and  _245
REMARK  103  A    between atoms: _244  and  _247
REMARK  104  A    between atoms: _247  and  _248
REMARK  105  A    between atoms: _251  and  _253
REMARK  106  A    between atoms: _253  and  _254
REMARK  107  A    between atoms: _256  and  _258
REMARK  108  A    between atoms: _258  and  _259
REMARK  109  A    between atoms: _258  and  _261
REMARK  110  A    between atoms: _261  and  _262
REMARK  111  A    between atoms: _262  and  _263
REMARK  112  A    between atoms: _263  and  _264
REMARK  113  A    between atoms: _273  and  _275
REMARK  114  A    between atoms: _275  and  _276
REMARK  115  A    between atoms: _275  and  _278
REMARK  116  A    between atoms: _278  and  _279
REMARK  117  A    between atoms: _279  and  _280
REMARK  118  A    between atoms: _280  and  _281
REMARK  119  A    between atoms: _290  and  _292
REMARK  120  A    between atoms: _292  and  _293
REMARK  121  A    between atoms: _292  and  _295
REMARK  122  A    between atoms: _295  and  _296
REMARK  123  A    between atoms: _299  and  _301
REMARK  124  A    between atoms: _301  and  _302
REMARK  125  A    between atoms: _301  and  _304
REMARK  126  A    between atoms: _304  and  _305
REMARK  127  A    between atoms: _308  and  _310
REMARK  128  A    between atoms: _310  and  _311
REMARK  129  A    between atoms: _310  and  _313
REMARK  130  A    between atoms: _313  and  _314
REMARK  131  A    between atoms: _317  and  _319
REMARK  132  A    between atoms: _319  and  _320
REMARK  133  A    between atoms: _319  and  _322
REMARK  134  A    between atoms: _322  and  _323
REMARK  135  A    between atoms: _326  and  _328
REMARK  136  A    between atoms: _328  and  _329
REMARK  137  A    between atoms: _331  and  _333
REMARK  138  A    between atoms: _333  and  _334
REMARK  139  A    between atoms: _337  and  _339
REMARK  140  A    between atoms: _339  and  _340
REMARK  141  A    between atoms: _339  and  _342
REMARK  142  A    between atoms: _342  and  _343
REMARK  143  A    between atoms: _346  and  _348
REMARK  144  A    between atoms: _348  and  _349
REMARK  145  A    between atoms: _348  and  _351
REMARK  146  A    between atoms: _351  and  _352
REMARK  147  A    between atoms: _355  and  _357
REMARK  148  A    between atoms: _357  and  _358
REMARK  149  A    between atoms: _357  and  _360
REMARK  150  A    between atoms: _360  and  _361
REMARK  151  A    between atoms: _364  and  _366
REMARK  152  A    between atoms: _366  and  _367
REMARK  153  A    between atoms: _366  and  _369
REMARK  154  A    between atoms: _372  and  _374
REMARK  155  A    between atoms: _374  and  _375
REMARK  156  A    between atoms: _374  and  _377
REMARK  157  A    between atoms: _377  and  _378
REMARK  158  A    between atoms: _378  and  _379
REMARK  159  A    between atoms: _379  and  _380
REMARK  160  A    between atoms: _380  and  _381
REMARK  161  A    between atoms: _385  and  _387
REMARK  162  A    between atoms: _387  and  _388
REMARK  163  A    between atoms: _387  and  _390
REMARK  164  A    between atoms: _390  and  _391
REMARK  165  A    between atoms: _394  and  _396
REMARK  166  A    between atoms: _396  and  _397
REMARK  167  A    between atoms: _399  and  _401
REMARK  168  A    between atoms: _401  and  _402
REMARK  169  A    between atoms: _404  and  _406
REMARK  170  A    between atoms: _406  and  _407
REMARK  171  A    between atoms: _406  and  _409
REMARK  172  A    between atoms: _409  and  _410
REMARK  173  A    between atoms: _413  and  _415
REMARK  174  A    between atoms: _415  and  _416
REMARK  175  A    between atoms: _418  and  _420
REMARK  176  A    between atoms: _420  and  _421
REMARK  177  A    between atoms: _423  and  _425
REMARK  178  A    between atoms: _425  and  _426
REMARK  179  A    between atoms: _425  and  _428
REMARK  180  A    between atoms: _428  and  _429
REMARK  181  A    between atoms: _435  and  _437
REMARK  182  A    between atoms: _437  and  _438
REMARK  183  A    between atoms: _437  and  _440
REMARK  184  A    between atoms: _440  and  _441
REMARK  185  A    between atoms: _444  and  _446
REMARK  186  A    between atoms: _446  and  _447
REMARK  187  A    between atoms: _446  and  _449
REMARK  188  A    between atoms: _452  and  _454
REMARK  189  A    between atoms: _454  and  _455
REMARK  190  A    between atoms: _454  and  _457
REMARK  191  A    between atoms: _457  and  _458
REMARK  192  A    between atoms: _461  and  _463
REMARK  193  A    between atoms: _463  and  _464
REMARK  194  A    between atoms: _463  and  _466
REMARK  195  A    between atoms: _466  and  _467
REMARK  196  A    between atoms: _471  and  _472
REMARK  197  A    between atoms: _477  and  _479
REMARK  198  A    between atoms: _479  and  _480
REMARK  199  A    between atoms: _479  and  _482
REMARK  200  A    between atoms: _485  and  _487
REMARK  201  A    between atoms: _487  and  _488
REMARK  202  A    between atoms: _487  and  _490
REMARK  203  A    between atoms: _490  and  _491
REMARK  204  A    between atoms: _494  and  _496
REMARK  205  A    between atoms: _496  and  _497
REMARK  206  A    between atoms: _496  and  _499
REMARK  207  A    between atoms: _499  and  _500
REMARK  208  A    between atoms: _503  and  _505
REMARK  209  A    between atoms: _505  and  _506
REMARK  210  A    between atoms: _508  and  _510
REMARK  211  A    between atoms: _510  and  _511
REMARK  212  A    between atoms: _510  and  _513
REMARK  213  A    between atoms: _513  and  _514
REMARK  214  A    between atoms: _514  and  _515
REMARK  215  A    between atoms: _515  and  _516
REMARK  216  A    between atoms: _525  and  _527
REMARK  217  A    between atoms: _527  and  _528
REMARK  218  A    between atoms: _527  and  _530
REMARK  219  A    between atoms: _530  and  _531
REMARK                            x       y       z     vdW  Elec       q    Type
REMARK                         _______ _______ _______ _____ _____    ______ ____
ROOT
ATOM      1  C   GLY A   5       5.686  -1.988  20.477  0.00  0.00    +0.243 C 
ATOM      2  N   ALA A   6       6.963  -1.669  20.537  0.00  0.00    -0.297 N 
ATOM      3  H   ALA A   6       7.253  -0.729  20.874  0.00  0.00    +0.150 HD
ATOM      4  O   GLY A   5       5.289  -3.078  20.117  0.00  0.00    -0.273 OA
ENDROOT
BRANCH   2   5
ATOM      5  CA  ALA A   6       7.965  -2.642  20.128  0.00  0.00    +0.149 C 
ATOM      6  CB  ALA A   6       9.099  -1.959  19.350  0.00  0.00    +0.031 C 
BRANCH   5   7
ATOM      7  C   ALA A   6       8.513  -3.263  21.378  0.00  0.00    +0.241 C 
ATOM      8  O   ALA A   6       8.892  -2.596  22.339  0.00  0.00    -0.273 OA
ATOM      9  N   ASP A   7       8.553  -4.583  21.348  0.00  0.00    -0.297 N 
ATOM     10  H   ASP A   7       8.151  -5.113  20.549  0.00  0.00    +0.150 HD
BRANCH   9  11
ATOM     11  CA  ASP A   7       9.180  -5.276  22.474  0.00  0.00    +0.160 C 
BRANCH  11  12
ATOM     12  C   ASP A   7      10.682  -5.257  22.425  0.00  0.00    +0.241 C 
ATOM     13  O   ASP A   7      11.331  -5.405  23.455  0.00  0.00    -0.273 OA
ATOM     14  N   ASP A   8      11.208  -5.116  21.214  0.00  0.00    -0.297 N 
ATOM     15  H   ASP A   8      10.565  -4.922  20.420  0.00  0.00    +0.150 HD
BRANCH  14  16
ATOM     16  CA  ASP A   8      12.641  -5.218  20.932  0.00  0.00    +0.160 C 
BRANCH  16  17
ATOM     17  C   ASP A   8      13.141  -3.888  20.366  0.00  0.00    +0.241 C 
ATOM     18  N   THR A   9      14.454  -3.707  20.328  0.00  0.00    -0.295 N 
ATOM     19  H   THR A   9      15.073  -4.404  20.789  0.00  0.00    +0.150 HD
ATOM     20  O   ASP A   8      12.333  -3.068  19.958  0.00  0.00    -0.273 OA
BRANCH  18  21
ATOM     21  CA  THR A   9      15.055  -2.561  19.659  0.00  0.00    +0.176 C 
BRANCH  21  22
ATOM     22  C   THR A   9      15.613  -3.009  18.322  0.00  0.00    +0.243 C 
ATOM     23  O   THR A   9      16.384  -3.952  18.294  0.00  0.00    -0.273 OA
ATOM     24  N   VAL A  10      15.197  -2.365  17.224  0.00  0.00    -0.298 N 
ATOM     25  H   VAL A  10      14.522  -1.579  17.316  0.00  0.00    +0.150 HD
BRANCH  24  26
ATOM     26  CA  VAL A  10      15.676  -2.749  15.899  0.00  0.00    +0.137 C 
BRANCH  26  27
ATOM     27  CB  VAL A  10      14.503  -3.121  15.002  0.00  0.00    +0.026 C 
ATOM     28  CG2 VAL A  10      13.552  -4.043  15.727  0.00  0.00    +0.002 C 
ATOM     29  CG1 VAL A  10      15.003  -3.795  13.743  0.00  0.00    +0.002 C 
ENDBRANCH  26  27
BRANCH  26  30
ATOM     30  C   VAL A  10      16.377  -1.581  15.268  0.00  0.00    +0.227 C 
ATOM     31  O   VAL A  10      15.792  -0.521  15.155  0.00  0.00    -0.286 OA
ENDBRANCH  26  30
ENDBRANCH  24  26
ENDBRANCH  21  22
BRANCH  21  32
ATOM     32  CB  THR A   9      16.131  -2.045  20.630  0.00  0.00    +0.137 C 
ATOM     33  CG2 THR A   9      17.098  -1.021  20.035  0.00  0.00    +0.034 C 
BRANCH  32  34
ATOM     34  OG1 THR A   9      15.436  -1.504  21.759  0.00  0.00    -0.382 OA
ATOM     35  HG1 THR A   9      14.890  -2.214  22.181  0.00  0.00    +0.210 HD
ENDBRANCH  32  34
ENDBRANCH  21  32
ENDBRANCH  18  21
ENDBRANCH  16  17
BRANCH  16  36
ATOM     36  CB  ASP A   8      12.867  -6.289  19.862  0.00  0.00    +0.143 C 
BRANCH  36  37
ATOM     37  CG  ASP A   8      12.455  -7.668  20.332  0.00  0.00    +0.367 C 
ATOM     38  OD2 ASP A   8      13.080  -8.161  21.277  0.00  0.00    -0.246 OA
ATOM     39  OD1 ASP A   8      11.520  -8.247  19.761  0.00  0.00    -0.246 OA
ENDBRANCH  36  37
ENDBRANCH  16  36
ENDBRANCH  14  16
ENDBRANCH  11  12
BRANCH  11  40
ATOM     40  CB  ASP A   7       8.757  -6.745  22.550  0.00  0.00    +0.143 C 
BRANCH  40  41
ATOM     41  CG  ASP A   7       7.263  -7.010  22.667  0.00  0.00    +0.367 C 
ATOM     42  OD2 ASP A   7       6.511  -6.187  23.206  0.00  0.00    -0.246 OA
ATOM     43  OD1 ASP A   7       6.850  -8.086  22.223  0.00  0.00    -0.246 OA
ENDBRANCH  40  41
ENDBRANCH  11  40
ENDBRANCH   9  11
ENDBRANCH   5   7
ENDBRANCH   2   5
BRANCH   1  44
ATOM     44  CA  GLY A   5       4.706  -0.902  20.854  0.00  0.00    +0.176 C 
BRANCH  44  47
ATOM     45  C   THR A   4       5.475   0.274  22.797  0.00  0.00    +0.243 C 
ATOM     46  O   THR A   4       5.032  -0.597  23.535  0.00  0.00    -0.273 OA
ATOM     47  N   GLY A   5       5.371   0.230  21.478  0.00  0.00    -0.295 N 
ATOM     48  H   GLY A   5       5.761   0.997  20.894  0.00  0.00    +0.150 HD
BRANCH  45  49
ATOM     49  CA  THR A   4       6.166   1.534  23.302  0.00  0.00    +0.176 C 
BRANCH  49  51
ATOM     50  C   ASP A   3       7.771   2.067  21.582  0.00  0.00    +0.241 C 
ATOM     51  N   THR A   4       6.685   2.413  22.250  0.00  0.00    -0.295 N 
ATOM     52  H   THR A   4       6.200   3.306  22.030  0.00  0.00    +0.150 HD
ATOM     53  O   ASP A   3       8.334   1.014  21.783  0.00  0.00    -0.273 OA
BRANCH  50  54
ATOM     54  CA  ASP A   3       8.236   2.966  20.464  0.00  0.00    +0.160 C 
BRANCH  54  56
ATOM     55  C   LEU A   2       9.347   5.097  20.700  0.00  0.00    +0.241 C 
ATOM     56  N   ASP A   3       9.382   3.771  20.846  0.00  0.00    -0.297 N 
ATOM     57  H   ASP A   3      10.232   3.314  21.234  0.00  0.00    +0.150 HD
ATOM     58  O   LEU A   2       8.336   5.739  20.434  0.00  0.00    -0.273 OA
BRANCH  55  59
ATOM     59  CA  LEU A   2      10.673   5.783  20.821  0.00  0.00    +0.149 C 
BRANCH  59  61
ATOM     60  C   LEU A   1      11.602   5.756  18.654  0.00  0.00    +0.238 C 
ATOM     61  N   LEU A   2      10.955   6.449  19.563  0.00  0.00    -0.297 N 
ATOM     62  H   LEU A   2      10.658   7.430  19.389  0.00  0.00    +0.150 HD
ATOM     63  O   LEU A   1      12.032   4.625  18.871  0.00  0.00    -0.274 OA
BRANCH  60  64
ATOM     64  CA  LEU A   1      11.766   6.421  17.316  0.00  0.00    +0.145 C 
BRANCH  64  65
ATOM     65  N   LEU A   1      13.105   6.191  16.863  0.00  0.00    -0.238 NA
ATOM     66  H   LEU A   1      13.331   5.320  16.342  0.00  0.00    +0.142 HD
ENDBRANCH  64  65
BRANCH  64  67
ATOM     67  CB  LEU A   1      10.934   5.709  16.319  0.00  0.00    +0.026 C 
BRANCH  67  68
ATOM     68  CG  LEU A   1       9.466   5.827  16.428  0.00  0.00    +0.002 C 
ATOM     69  CD2 LEU A   1       9.008   7.174  15.923  0.00  0.00    +0.000 C 
ATOM     70  CD1 LEU A   1       8.910   4.707  15.604  0.00  0.00    +0.000 C 
ENDBRANCH  67  68
ENDBRANCH  64  67
ENDBRANCH  60  64
ENDBRANCH  59  61
BRANCH  59  71
ATOM     71  CB  LEU A   2      10.676   6.844  21.897  0.00  0.00    +0.029 C 
BRANCH  71  72
ATOM     72  CG  LEU A   2      11.918   7.696  21.999  0.00  0.00    +0.002 C 
ATOM     73  CD2 LEU A   2      11.605   8.785  22.974  0.00  0.00    +0.000 C 
ATOM     74  CD1 LEU A   2      13.130   6.885  22.440  0.00  0.00    +0.000 C 
ENDBRANCH  71  72
ENDBRANCH  59  71
ENDBRANCH  55  59
ENDBRANCH  54  56
BRANCH  54  75
ATOM     75  CB  ASP A   3       8.718   2.118  19.266  0.00  0.00    +0.143 C 
BRANCH  75  76
ATOM     76  CG  ASP A   3       7.626   1.272  18.620  0.00  0.00    +0.367 C 
ATOM     77  OD2 ASP A   3       6.502   1.178  19.126  0.00  0.00    -0.246 OA
ATOM     78  OD1 ASP A   3       7.909   0.688  17.582  0.00  0.00    -0.246 OA
ENDBRANCH  75  76
ENDBRANCH  54  75
ENDBRANCH  50  54
ENDBRANCH  49  51
BRANCH  49  79
ATOM     79  CB  THR A   4       5.210   2.361  24.170  0.00  0.00    +0.137 C 
ATOM     80  CG2 THR A   4       5.960   3.519  24.770  0.00  0.00    +0.034 C 
BRANCH  79  81
ATOM     81  OG1 THR A   4       4.110   2.856  23.391  0.00  0.00    -0.382 OA
ATOM     82  HG1 THR A   4       3.611   2.093  23.005  0.00  0.00    +0.210 HD
ENDBRANCH  79  81
ENDBRANCH  49  79
ENDBRANCH  45  49
ENDBRANCH  44  47
ENDBRANCH   1  44
TORSDOF 35
REMARK  Name = ../refined-set-2016/1hpx/1hpx_pocket.pdb
REMARK  219 active torsions:
REMARK  status: ('A' for Active; 'I' for Inactive)
REMARK    1  A    between atoms: _1  and  _3
REMARK    2  A    between atoms: _3  and  _4
REMARK    3  A    between atoms: _3  and  _6
REMARK    4  A    between atoms: _6  and  _7
REMARK    5  A    between atoms: _7  and  _8
REMARK    6  A    between atoms: _8  and  _9
REMARK    7  A    between atoms: _18  and  _20
REMARK    8  A    between atoms: _20  and  _21
REMARK    9  A    between atoms: _20  and  _23
REMARK   10  A    between atoms: _23  and  _24
REMARK   11  A    between atoms: _27  and  _29
REMARK   12  A    between atoms: _29  and  _30
REMARK   13  A    between atoms: _29  and  _32
REMARK   14  A    between atoms: _32  and  _33
REMARK   15  A    between atoms: _36  and  _38
REMARK   16  A    between atoms: _38  and  _39
REMARK   17  A    between atoms: _38  and  _41
REMARK   18  A    between atoms: _41  and  _42
REMARK   19  A    between atoms: _45  and  _47
REMARK   20  A    between atoms: _47  and  _48
REMARK   21  A    between atoms: _47  and  _50
REMARK   22  A    between atoms: _50  and  _51
REMARK   23  A    between atoms: _54  and  _56
REMARK   24  A    between atoms: _56  and  _57
REMARK   25  A    between atoms: _59  and  _61
REMARK   26  A    between atoms: _61  and  _62
REMARK   27  A    between atoms: _65  and  _67
REMARK   28  A    between atoms: _67  and  _68
REMARK   29  A    between atoms: _67  and  _70
REMARK   30  A    between atoms: _70  and  _71
REMARK   31  A    between atoms: _74  and  _76
REMARK   32  A    between atoms: _76  and  _77
REMARK   33  A    between atoms: _76  and  _79
REMARK   34  A    between atoms: _79  and  _80
REMARK   35  A    between atoms: _83  and  _85
REMARK   36  A    between atoms: _85  and  _86
REMARK   37  A    between atoms: _85  and  _88
REMARK   38  A    between atoms: _88  and  _89
REMARK   39  A    between atoms: _92  and  _94
REMARK   40  A    between atoms: _94  and  _95
REMARK   41  A    between atoms: _94  and  _97
REMARK   42  A    between atoms: _100  and  _102
REMARK   43  A    between atoms: _102  and  _103
REMARK   44  A    between atoms: _102  and  _105
REMARK   45  A    between atoms: _105  and  _106
REMARK   46  A    between atoms: _106  and  _107
REMARK   47  A    between atoms: _107  and  _108
REMARK   48  A    between atoms: _108  and  _109
REMARK   49  A    between atoms: _113  and  _115
REMARK   50  A    between atoms: _115  and  _116
REMARK   51  A    between atoms: _115  and  _118
REMARK   52  A    between atoms: _118  and  _119
REMARK   53  A    between atoms: _119  and  _120
REMARK   54  A    between atoms: _122  and  _124
REMARK   55  A    between atoms: _124  and  _125
REMARK   56  A    between atoms: _124  and  _127
REMARK   57  A    between atoms: _127  and  _128
REMARK   58  A    between atoms: _131  and  _133
REMARK   59  A    between atoms: _133  and  _134
REMARK   60  A    between atoms: _136  and  _138
REMARK   61  A    between atoms: _138  and  _139
REMARK   62  A    between atoms: _141  and  _143
REMARK   63  A    between atoms: _143  and  _144
REMARK   64  A    between atoms: _143  and  _146
REMARK   65  A    between atoms: _146  and  _147
REMARK   66  A    between atoms: _150  and  _152
REMARK   67  A    between atoms: _152  and  _153
REMARK   68  A    between atoms: _155  and  _157
REMARK   69  A    between atoms: _157  and  _158
REMARK   70  A    between atoms: _160  and  _162
REMARK   71  A    between atoms: _162  and  _163
REMARK   72  A    between atoms: _162  and  _165
REMARK   73  A    between atoms: _165  and  _166
REMARK   74  A    between atoms: _172  and  _174
REMARK   75  A    between atoms: _174  and  _175
REMARK   76  A    between atoms: _174  and  _177
REMARK   77  A    between atoms: _177  and  _178
REMARK   78  A    between atoms: _181  and  _183
REMARK   79  A    between atoms: _183  and  _184
REMARK   80  A    between atoms: _183  and  _186
REMARK   81  A    between atoms: _189  and  _191
REMARK   82  A    between atoms: _191  and  _192
REMARK   83  A    between atoms: _191  and  _194
REMARK   84  A    between atoms: _194  and  _195
REMARK   85  A    between atoms: _198  and  _200
REMARK   86  A    between atoms: _200  and  _201
REMARK   87  A    between atoms: _200  and  _203
REMARK   88  A    between atoms: _203  and  _204
REMARK   89  A    between atoms: _208  and  _209
REMARK   90  A    between atoms: _214  and  _216
REMARK   91  A    between atoms: _216  and  _217
REMARK   92  A    between atoms: _216  and  _219
REMARK   93  A    between atoms: _222  and  _224
REMARK   94  A    between atoms: _224  and  _225
REMARK   95  A    between atoms: _224  and  _227
REMARK   96  A    between atoms: _227  and  _228
REMARK   97  A    between atoms: _233  and  _235
REMARK   98  A    between atoms: _235  and  _236
REMARK   99  A    between atoms: _235  and  _238
REMARK  100  A    between atoms: _238  and  _239
REMARK  101  A    between atoms: _242  and  _244
REMARK  102  A    between atoms: _244  and  _245
REMARK  103  A    between atoms: _244  and  _247
REMARK  104  A    between atoms: _247  and  _248
REMARK  105  A    between atoms: _251  and  _253
REMARK  106  A    between atoms: _253  and  _254
REMARK  107  A    between atoms: _256  and  _258
REMARK  108  A    between atoms: _258  and  _259
REMARK  109  A    between atoms: _258  and  _261
REMARK  110  A    between atoms: _261  and  _262
REMARK  111  A    between atoms: _262  and  _263
REMARK  112  A    between atoms: _263  and  _264
REMARK  113  A    between atoms: _273  and  _275
REMARK  114  A    between atoms: _275  and  _276
REMARK  115  A    between atoms: _275  and  _278
REMARK  116  A    between atoms: _278  and  _279
REMARK  117  A    between atoms: _279  and  _280
REMARK  118  A    between atoms: _280  and  _281
REMARK  119  A    between atoms: _290  and  _292
REMARK  120  A    between atoms: _292  and  _293
REMARK  121  A    between atoms: _292  and  _295
REMARK  122  A    between atoms: _295  and  _296
REMARK  123  A    between atoms: _299  and  _301
REMARK  124  A    between atoms: _301  and  _302
REMARK  125  A    between atoms: _301  and  _304
REMARK  126  A    between atoms: _304  and  _305
REMARK  127  A    between atoms: _308  and  _310
REMARK  128  A    between atoms: _310  and  _311
REMARK  129  A    between atoms: _310  and  _313
REMARK  130  A    between atoms: _313  and  _314
REMARK  131  A    between atoms: _317  and  _319
REMARK  132  A    between atoms: _319  and  _320
REMARK  133  A    between atoms: _319  and  _322
REMARK  134  A    between atoms: _322  and  _323
REMARK  135  A    between atoms: _326  and  _328
REMARK  136  A    between atoms: _328  and  _329
REMARK  137  A    between atoms: _331  and  _333
REMARK  138  A    between atoms: _333  and  _334
REMARK  139  A    between atoms: _337  and  _339
REMARK  140  A    between atoms: _339  and  _340
REMARK  141  A    between atoms: _339  and  _342
REMARK  142  A    between atoms: _342  and  _343
REMARK  143  A    between atoms: _346  and  _348
REMARK  144  A    between atoms: _348  and  _349
REMARK  145  A    between atoms: _348  and  _351
REMARK  146  A    between atoms: _351  and  _352
REMARK  147  A    between atoms: _355  and  _357
REMARK  148  A    between atoms: _357  and  _358
REMARK  149  A    between atoms: _357  and  _360
REMARK  150  A    between atoms: _360  and  _361
REMARK  151  A    between atoms: _364  and  _366
REMARK  152  A    between atoms: _366  and  _367
REMARK  153  A    between atoms: _366  and  _369
REMARK  154  A    between atoms: _372  and  _374
REMARK  155  A    between atoms: _374  and  _375
REMARK  156  A    between atoms: _374  and  _377
REMARK  157  A    between atoms: _377  and  _378
REMARK  158  A    between atoms: _378  and  _379
REMARK  159  A    between atoms: _379  and  _380
REMARK  160  A    between atoms: _380  and  _381
REMARK  161  A    between atoms: _385  and  _387
REMARK  162  A    between atoms: _387  and  _388
REMARK  163  A    between atoms: _387  and  _390
REMARK  164  A    between atoms: _390  and  _391
REMARK  165  A    between atoms: _394  and  _396
REMARK  166  A    between atoms: _396  and  _397
REMARK  167  A    between atoms: _399  and  _401
REMARK  168  A    between atoms: _401  and  _402
REMARK  169  A    between atoms: _404  and  _406
REMARK  170  A    between atoms: _406  and  _407
REMARK  171  A    between atoms: _406  and  _409
REMARK  172  A    between atoms: _409  and  _410
REMARK  173  A    between atoms: _413  and  _415
REMARK  174  A    between atoms: _415  and  _416
REMARK  175  A    between atoms: _418  and  _420
REMARK  176  A    between atoms: _420  and  _421
REMARK  177  A    between atoms: _423  and  _425
REMARK  178  A    between atoms: _425  and  _426
REMARK  179  A    between atoms: _425  and  _428
REMARK  180  A    between atoms: _428  and  _429
REMARK  181  A    between atoms: _435  and  _437
REMARK  182  A    between atoms: _437  and  _438
REMARK  183  A    between atoms: _437  and  _440
REMARK  184  A    between atoms: _440  and  _441
REMARK  185  A    between atoms: _444  and  _446
REMARK  186  A    between atoms: _446  and  _447
REMARK  187  A    between atoms: _446  and  _449
REMARK  188  A    between atoms: _452  and  _454
REMARK  189  A    between atoms: _454  and  _455
REMARK  190  A    between atoms: _454  and  _457
REMARK  191  A    between atoms: _457  and  _458
REMARK  192  A    between atoms: _461  and  _463
REMARK  193  A    between atoms: _463  and  _464
REMARK  194  A    between atoms: _463  and  _466
REMARK  195  A    between atoms: _466  and  _467
REMARK  196  A    between atoms: _471  and  _472
REMARK  197  A    between atoms: _477  and  _479
REMARK  198  A    between atoms: _479  and  _480
REMARK  199  A    between atoms: _479  and  _482
REMARK  200  A    between atoms: _485  and  _487
REMARK  201  A    between atoms: _487  and  _488
REMARK  202  A    between atoms: _487  and  _490
REMARK  203  A    between atoms: _490  and  _491
REMARK  204  A    between atoms: _494  and  _496
REMARK  205  A    between atoms: _496  and  _497
REMARK  206  A    between atoms: _496  and  _499
REMARK  207  A    between atoms: _499  and  _500
REMARK  208  A    between atoms: _503  and  _505
REMARK  209  A    between atoms: _505  and  _506
REMARK  210  A    between atoms: _508  and  _510
REMARK  211  A    between atoms: _510  and  _511
REMARK  212  A    between atoms: _510  and  _513
REMARK  213  A    between atoms: _513  and  _514
REMARK  214  A    between atoms: _514  and  _515
REMARK  215  A    between atoms: _515  and  _516
REMARK  216  A    between atoms: _525  and  _527
REMARK  217  A    between atoms: _527  and  _528
REMARK  218  A    between atoms: _527  and  _530
REMARK  219  A    between atoms: _530  and  _531
REMARK                            x       y       z     vdW  Elec       q    Type
REMARK                         _______ _______ _______ _____ _____    ______ ____
ROOT
ATOM      1  C   GLY A   5       4.363  -6.674  11.633  0.00  0.00    +0.243 C 
ATOM      2  N   ILE A   6       3.902  -5.490  11.268  0.00  0.00    -0.297 N 
ATOM      3  H   ILE A   6       4.477  -4.640  11.435  0.00  0.00    +0.150 HD
ATOM      4  O   GLY A   5       3.927  -7.734  11.221  0.00  0.00    -0.273 OA
ENDROOT
BRANCH   2   5
ATOM      5  CA  ILE A   6       2.597  -5.365  10.634  0.00  0.00    +0.149 C 
BRANCH   5   6
ATOM      6  C   ILE A   6       2.474  -6.165   9.361  0.00  0.00    +0.241 C 
ATOM      7  O   ILE A   6       1.472  -6.819   9.116  0.00  0.00    -0.273 OA
ATOM      8  N   GLY A   7       3.530  -6.117   8.568  0.00  0.00    -0.295 N 
ATOM      9  H   GLY A   7       4.415  -5.658   8.863  0.00  0.00    +0.150 HD
BRANCH   8  10
ATOM     10  CA  GLY A   7       3.390  -6.738   7.262  0.00  0.00    +0.176 C 
BRANCH  10  11
ATOM     11  C   GLY A   7       4.029  -8.103   7.211  0.00  0.00    +0.243 C 
ATOM     12  N   GLY A   8       4.475  -8.637   8.348  0.00  0.00    -0.295 N 
ATOM     13  H   GLY A   8       4.301  -8.165   9.258  0.00  0.00    +0.150 HD
ATOM     14  O   GLY A   7       4.130  -8.659   6.135  0.00  0.00    -0.273 OA
BRANCH  12  15
ATOM     15  CA  GLY A   8       5.214  -9.900   8.294  0.00  0.00    +0.176 C 
BRANCH  15  16
ATOM     16  C   GLY A   8       6.568  -9.805   8.973  0.00  0.00    +0.243 C 
ATOM     17  O   GLY A   8       6.801  -8.994   9.863  0.00  0.00    -0.273 OA
ATOM     18  N   PHE A   9       7.445 -10.705   8.551  0.00  0.00    -0.297 N 
ATOM     19  H   PHE A   9       7.256 -11.222   7.668  0.00  0.00    +0.150 HD
BRANCH  18  20
ATOM     20  CA  PHE A   9       8.674 -10.990   9.297  0.00  0.00    +0.153 C 
BRANCH  20  21
ATOM     21  C   PHE A   9       9.856 -10.557   8.477  0.00  0.00    +0.241 C 
ATOM     22  N   ILE A  10      10.939 -10.152   9.150  0.00  0.00    -0.298 N 
ATOM     23  H   ILE A  10      10.866 -10.036  10.181  0.00  0.00    +0.150 HD
ATOM     24  O   PHE A   9       9.767 -10.586   7.258  0.00  0.00    -0.273 OA
BRANCH  22  25
ATOM     25  CA  ILE A  10      12.225  -9.864   8.503  0.00  0.00    +0.137 C 
BRANCH  25  26
ATOM     26  C   ILE A  10      13.328 -10.554   9.274  0.00  0.00    +0.227 C 
ATOM     27  O   ILE A  10      13.168 -10.827  10.458  0.00  0.00    -0.286 OA
ENDBRANCH  25  26
BRANCH  25  28
ATOM     28  CB  ILE A  10      12.558  -8.363   8.560  0.00  0.00    +0.026 C 
ATOM     29  CG2 ILE A  10      11.715  -7.556   7.590  0.00  0.00    +0.002 C 
BRANCH  28  30
ATOM     30  CG1 ILE A  10      12.479  -7.760   9.957  0.00  0.00    +0.002 C 
ATOM     31  CD1 ILE A  10      13.286  -6.462  10.019  0.00  0.00    +0.000 C 
ENDBRANCH  28  30
ENDBRANCH  25  28
ENDBRANCH  22  25
ENDBRANCH  20  21
BRANCH  20  32
ATOM     32  CB  PHE A   9       8.770 -12.511   9.578  0.00  0.00    +0.055 C 
BRANCH  32  33
ATOM     33  CG  PHE A   9       7.906 -12.961  10.731  0.00  0.00    -0.020 A 
ATOM     34  CD2 PHE A   9       8.492 -13.110  11.982  0.00  0.00    -0.004 A 
ATOM     35  CE2 PHE A   9       7.731 -13.435  13.100  0.00  0.00    -0.000 A 
ATOM     36  CZ  PHE A   9       6.366 -13.609  12.922  0.00  0.00    -0.000 A 
ATOM     37  CE1 PHE A   9       5.782 -13.472  11.666  0.00  0.00    -0.000 A 
ATOM     38  CD1 PHE A   9       6.547 -13.157  10.561  0.00  0.00    -0.004 A 
ENDBRANCH  32  33
ENDBRANCH  20  32
ENDBRANCH  18  20
ENDBRANCH  15  16
ENDBRANCH  12  15
ENDBRANCH  10  11
ENDBRANCH   8  10
ENDBRANCH   5   6
BRANCH   5  39
ATOM     39  CB  ILE A   6       2.234  -3.857  10.451  0.00  0.00    +0.027 C 
ATOM     40  CG2 ILE A   6       2.750  -3.204   9.198  0.00  0.00    +0.002 C 
BRANCH  39  41
ATOM     41  CG1 ILE A   6       0.775  -3.519  10.485  0.00  0.00    +0.002 C 
ATOM     42  CD1 ILE A   6       0.286  -3.363  11.923  0.00  0.00    +0.000 C 
ENDBRANCH  39  41
ENDBRANCH   5  39
ENDBRANCH   2   5
BRANCH   1  43
ATOM     43  CA  GLY A   5       5.489  -6.653  12.599  0.00  0.00    +0.176 C 
BRANCH  43  46
ATOM     44  C   GLY A   4       6.656  -8.564  13.343  0.00  0.00    +0.243 C 
ATOM     45  O   GLY A   4       6.460  -8.283  14.512  0.00  0.00    -0.273 OA
ATOM     46  N   GLY A   5       6.304  -7.823  12.349  0.00  0.00    -0.295 N 
ATOM     47  H   GLY A   5       6.601  -8.062  11.381  0.00  0.00    +0.150 HD
BRANCH  44  48
ATOM     48  CA  GLY A   4       7.355  -9.810  12.927  0.00  0.00    +0.176 C 
BRANCH  48  50
ATOM     49  C   ILE A   3       9.708 -10.117  13.125  0.00  0.00    +0.241 C 
ATOM     50  N   GLY A   4       8.551  -9.962  13.718  0.00  0.00    -0.295 N 
ATOM     51  H   GLY A   4       8.495  -9.949  14.756  0.00  0.00    +0.150 HD
ATOM     52  O   ILE A   3       9.903  -9.974  11.929  0.00  0.00    -0.273 OA
BRANCH  49  53
ATOM     53  CA  ILE A   3      10.825 -10.521  14.025  0.00  0.00    +0.149 C 
BRANCH  53  56
ATOM     54  C   MET A   2      12.164 -12.619  13.685  0.00  0.00    +0.241 C 
ATOM     55  O   MET A   2      11.728 -13.182  14.681  0.00  0.00    -0.273 OA
ATOM     56  N   ILE A   3      11.804 -11.367  13.288  0.00  0.00    -0.297 N 
ATOM     57  H   ILE A   3      12.236 -10.981  12.424  0.00  0.00    +0.150 HD
BRANCH  54  58
ATOM     58  CA  MET A   2      13.223 -13.324  12.837  0.00  0.00    +0.149 C 
BRANCH  58  60
ATOM     59  C   LYS A   1      15.584 -13.577  13.486  0.00  0.00    +0.238 C 
ATOM     60  N   MET A   2      14.287 -13.896  13.676  0.00  0.00    -0.297 N 
ATOM     61  H   MET A   2      14.034 -14.562  14.434  0.00  0.00    +0.150 HD
ATOM     62  O   LYS A   1      15.987 -12.931  12.516  0.00  0.00    -0.274 OA
BRANCH  59  63
ATOM     63  CA  LYS A   1      16.567 -14.061  14.545  0.00  0.00    +0.145 C 
BRANCH  63  64
ATOM     64  N   LYS A   1      17.886 -14.098  13.943  0.00  0.00    -0.238 NA
ATOM     65  H   LYS A   1      18.141 -13.442  13.177  0.00  0.00    +0.142 HD
ENDBRANCH  63  64
BRANCH  63  66
ATOM     66  CB  LYS A   1      16.645 -13.105  15.737  0.00  0.00    +0.026 C 
BRANCH  66  67
ATOM     67  CG  LYS A   1      15.475 -13.291  16.674  0.00  0.00    -0.000 C 
BRANCH  67  68
ATOM     68  CD  LYS A   1      15.371 -12.247  17.766  0.00  0.00    -0.024 C 
BRANCH  68  69
ATOM     69  CE  LYS A   1      14.211 -12.513  18.728  0.00  0.00    -0.086 C 
BRANCH  69  70
ATOM     70  NZ  LYS A   1      14.025 -11.336  19.595  0.00  0.00    +0.380 N 
ATOM     71  HZ1 LYS A   1      13.237 -11.511  20.251  0.00  0.00    -0.089 HD
ATOM     72  HZ2 LYS A   1      14.897 -11.164  20.136  0.00  0.00    -0.089 HD
ATOM     73  HZ3 LYS A   1      13.810 -10.505  19.008  0.00  0.00    -0.089 HD
ENDBRANCH  69  70
ENDBRANCH  68  69
ENDBRANCH  67  68
ENDBRANCH  66  67
ENDBRANCH  63  66
ENDBRANCH  59  63
ENDBRANCH  58  60
BRANCH  58  74
ATOM     74  CB  MET A   2      12.617 -14.410  11.925  0.00  0.00    +0.041 C 
BRANCH  74  75
ATOM     75  CG  MET A   2      13.564 -14.572  10.739  0.00  0.00    +0.060 C 
BRANCH  75  76
ATOM     76  SD  MET A   2      13.085 -15.736   9.500  0.00  0.00    -0.139 S 
ATOM     77  CE  MET A   2      11.636 -14.831   8.925  0.00  0.00    +0.069 C 
ENDBRANCH  75  76
ENDBRANCH  74  75
ENDBRANCH  58  74
ENDBRANCH  54  58
ENDBRANCH  53  56
BRANCH  53  78
ATOM     78  CB  ILE A   3      11.429  -9.206  14.542  0.00  0.00    +0.027 C 
ATOM     79  CG2 ILE A   3      12.105  -9.445  15.848  0.00  0.00    +0.002 C 
BRANCH  78  80
ATOM     80  CG1 ILE A   3      12.377  -8.560  13.571  0.00  0.00    +0.002 C 
ATOM     81  CD1 ILE A   3      12.646  -7.145  14.027  0.00  0.00    +0.000 C 
ENDBRANCH  78  80
ENDBRANCH  53  78
ENDBRANCH  49  53
ENDBRANCH  48  50
ENDBRANCH  44  48
ENDBRANCH  43  46
ENDBRANCH   1  43
TORSDOF 36
REMARK  Name = ../refined-set-2016/1hpx/1hpx_pocket.pdb
REMARK  219 active torsions:
REMARK  status: ('A' for Active; 'I' for Inactive)
REMARK    1  A    between atoms: _1  and  _3
REMARK    2  A    between atoms: _3  and  _4
REMARK    3  A    between atoms: _3  and  _6
REMARK    4  A    between atoms: _6  and  _7
REMARK    5  A    between atoms: _7  and  _8
REMARK    6  A    between atoms: _8  and  _9
REMARK    7  A    between atoms: _18  and  _20
REMARK    8  A    between atoms: _20  and  _21
REMARK    9  A    between atoms: _20  and  _23
REMARK   10  A    between atoms: _23  and  _24
REMARK   11  A    between atoms: _27  and  _29
REMARK   12  A    between atoms: _29  and  _30
REMARK   13  A    between atoms: _29  and  _32
REMARK   14  A    between atoms: _32  and  _33
REMARK   15  A    between atoms: _36  and  _38
REMARK   16  A    between atoms: _38  and  _39
REMARK   17  A    between atoms: _38  and  _41
REMARK   18  A    between atoms: _41  and  _42
REMARK   19  A    between atoms: _45  and  _47
REMARK   20  A    between atoms: _47  and  _48
REMARK   21  A    between atoms: _47  and  _50
REMARK   22  A    between atoms: _50  and  _51
REMARK   23  A    between atoms: _54  and  _56
REMARK   24  A    between atoms: _56  and  _57
REMARK   25  A    between atoms: _59  and  _61
REMARK   26  A    between atoms: _61  and  _62
REMARK   27  A    between atoms: _65  and  _67
REMARK   28  A    between atoms: _67  and  _68
REMARK   29  A    between atoms: _67  and  _70
REMARK   30  A    between atoms: _70  and  _71
REMARK   31  A    between atoms: _74  and  _76
REMARK   32  A    between atoms: _76  and  _77
REMARK   33  A    between atoms: _76  and  _79
REMARK   34  A    between atoms: _79  and  _80
REMARK   35  A    between atoms: _83  and  _85
REMARK   36  A    between atoms: _85  and  _86
REMARK   37  A    between atoms: _85  and  _88
REMARK   38  A    between atoms: _88  and  _89
REMARK   39  A    between atoms: _92  and  _94
REMARK   40  A    between atoms: _94  and  _95
REMARK   41  A    between atoms: _94  and  _97
REMARK   42  A    between atoms: _100  and  _102
REMARK   43  A    between atoms: _102  and  _103
REMARK   44  A    between atoms: _102  and  _105
REMARK   45  A    between atoms: _105  and  _106
REMARK   46  A    between atoms: _106  and  _107
REMARK   47  A    between atoms: _107  and  _108
REMARK   48  A    between atoms: _108  and  _109
REMARK   49  A    between atoms: _113  and  _115
REMARK   50  A    between atoms: _115  and  _116
REMARK   51  A    between atoms: _115  and  _118
REMARK   52  A    between atoms: _118  and  _119
REMARK   53  A    between atoms: _119  and  _120
REMARK   54  A    between atoms: _122  and  _124
REMARK   55  A    between atoms: _124  and  _125
REMARK   56  A    between atoms: _124  and  _127
REMARK   57  A    between atoms: _127  and  _128
REMARK   58  A    between atoms: _131  and  _133
REMARK   59  A    between atoms: _133  and  _134
REMARK   60  A    between atoms: _136  and  _138
REMARK   61  A    between atoms: _138  and  _139
REMARK   62  A    between atoms: _141  and  _143
REMARK   63  A    between atoms: _143  and  _144
REMARK   64  A    between atoms: _143  and  _146
REMARK   65  A    between atoms: _146  and  _147
REMARK   66  A    between atoms: _150  and  _152
REMARK   67  A    between atoms: _152  and  _153
REMARK   68  A    between atoms: _155  and  _157
REMARK   69  A    between atoms: _157  and  _158
REMARK   70  A    between atoms: _160  and  _162
REMARK   71  A    between atoms: _162  and  _163
REMARK   72  A    between atoms: _162  and  _165
REMARK   73  A    between atoms: _165  and  _166
REMARK   74  A    between atoms: _172  and  _174
REMARK   75  A    between atoms: _174  and  _175
REMARK   76  A    between atoms: _174  and  _177
REMARK   77  A    between atoms: _177  and  _178
REMARK   78  A    between atoms: _181  and  _183
REMARK   79  A    between atoms: _183  and  _184
REMARK   80  A    between atoms: _183  and  _186
REMARK   81  A    between atoms: _189  and  _191
REMARK   82  A    between atoms: _191  and  _192
REMARK   83  A    between atoms: _191  and  _194
REMARK   84  A    between atoms: _194  and  _195
REMARK   85  A    between atoms: _198  and  _200
REMARK   86  A    between atoms: _200  and  _201
REMARK   87  A    between atoms: _200  and  _203
REMARK   88  A    between atoms: _203  and  _204
REMARK   89  A    between atoms: _208  and  _209
REMARK   90  A    between atoms: _214  and  _216
REMARK   91  A    between atoms: _216  and  _217
REMARK   92  A    between atoms: _216  and  _219
REMARK   93  A    between atoms: _222  and  _224
REMARK   94  A    between atoms: _224  and  _225
REMARK   95  A    between atoms: _224  and  _227
REMARK   96  A    between atoms: _227  and  _228
REMARK   97  A    between atoms: _233  and  _235
REMARK   98  A    between atoms: _235  and  _236
REMARK   99  A    between atoms: _235  and  _238
REMARK  100  A    between atoms: _238  and  _239
REMARK  101  A    between atoms: _242  and  _244
REMARK  102  A    between atoms: _244  and  _245
REMARK  103  A    between atoms: _244  and  _247
REMARK  104  A    between atoms: _247  and  _248
REMARK  105  A    between atoms: _251  and  _253
REMARK  106  A    between atoms: _253  and  _254
REMARK  107  A    between atoms: _256  and  _258
REMARK  108  A    between atoms: _258  and  _259
REMARK  109  A    between atoms: _258  and  _261
REMARK  110  A    between atoms: _261  and  _262
REMARK  111  A    between atoms: _262  and  _263
REMARK  112  A    between atoms: _263  and  _264
REMARK  113  A    between atoms: _273  and  _275
REMARK  114  A    between atoms: _275  and  _276
REMARK  115  A    between atoms: _275  and  _278
REMARK  116  A    between atoms: _278  and  _279
REMARK  117  A    between atoms: _279  and  _280
REMARK  118  A    between atoms: _280  and  _281
REMARK  119  A    between atoms: _290  and  _292
REMARK  120  A    between atoms: _292  and  _293
REMARK  121  A    between atoms: _292  and  _295
REMARK  122  A    between atoms: _295  and  _296
REMARK  123  A    between atoms: _299  and  _301
REMARK  124  A    between atoms: _301  and  _302
REMARK  125  A    between atoms: _301  and  _304
REMARK  126  A    between atoms: _304  and  _305
REMARK  127  A    between atoms: _308  and  _310
REMARK  128  A    between atoms: _310  and  _311
REMARK  129  A    between atoms: _310  and  _313
REMARK  130  A    between atoms: _313  and  _314
REMARK  131  A    between atoms: _317  and  _319
REMARK  132  A    between atoms: _319  and  _320
REMARK  133  A    between atoms: _319  and  _322
REMARK  134  A    between atoms: _322  and  _323
REMARK  135  A    between atoms: _326  and  _328
REMARK  136  A    between atoms: _328  and  _329
REMARK  137  A    between atoms: _331  and  _333
REMARK  138  A    between atoms: _333  and  _334
REMARK  139  A    between atoms: _337  and  _339
REMARK  140  A    between atoms: _339  and  _340
REMARK  141  A    between atoms: _339  and  _342
REMARK  142  A    between atoms: _342  and  _343
REMARK  143  A    between atoms: _346  and  _348
REMARK  144  A    between atoms: _348  and  _349
REMARK  145  A    between atoms: _348  and  _351
REMARK  146  A    between atoms: _351  and  _352
REMARK  147  A    between atoms: _355  and  _357
REMARK  148  A    between atoms: _357  and  _358
REMARK  149  A    between atoms: _357  and  _360
REMARK  150  A    between atoms: _360  and  _361
REMARK  151  A    between atoms: _364  and  _366
REMARK  152  A    between atoms: _366  and  _367
REMARK  153  A    between atoms: _366  and  _369
REMARK  154  A    between atoms: _372  and  _374
REMARK  155  A    between atoms: _374  and  _375
REMARK  156  A    between atoms: _374  and  _377
REMARK  157  A    between atoms: _377  and  _378
REMARK  158  A    between atoms: _378  and  _379
REMARK  159  A    between atoms: _379  and  _380
REMARK  160  A    between atoms: _380  and  _381
REMARK  161  A    between atoms: _385  and  _387
REMARK  162  A    between atoms: _387  and  _388
REMARK  163  A    between atoms: _387  and  _390
REMARK  164  A    between atoms: _390  and  _391
REMARK  165  A    between atoms: _394  and  _396
REMARK  166  A    between atoms: _396  and  _397
REMARK  167  A    between atoms: _399  and  _401
REMARK  168  A    between atoms: _401  and  _402
REMARK  169  A    between atoms: _404  and  _406
REMARK  170  A    between atoms: _406  and  _407
REMARK  171  A    between atoms: _406  and  _409
REMARK  172  A    between atoms: _409  and  _410
REMARK  173  A    between atoms: _413  and  _415
REMARK  174  A    between atoms: _415  and  _416
REMARK  175  A    between atoms: _418  and  _420
REMARK  176  A    between atoms: _420  and  _421
REMARK  177  A    between atoms: _423  and  _425
REMARK  178  A    between atoms: _425  and  _426
REMARK  179  A    between atoms: _425  and  _428
REMARK  180  A    between atoms: _428  and  _429
REMARK  181  A    between atoms: _435  and  _437
REMARK  182  A    between atoms: _437  and  _438
REMARK  183  A    between atoms: _437  and  _440
REMARK  184  A    between atoms: _440  and  _441
REMARK  185  A    between atoms: _444  and  _446
REMARK  186  A    between atoms: _446  and  _447
REMARK  187  A    between atoms: _446  and  _449
REMARK  188  A    between atoms: _452  and  _454
REMARK  189  A    between atoms: _454  and  _455
REMARK  190  A    between atoms: _454  and  _457
REMARK  191  A    between atoms: _457  and  _458
REMARK  192  A    between atoms: _461  and  _463
REMARK  193  A    between atoms: _463  and  _464
REMARK  194  A    between atoms: _463  and  _466
REMARK  195  A    between atoms: _466  and  _467
REMARK  196  A    between atoms: _471  and  _472
REMARK  197  A    between atoms: _477  and  _479
REMARK  198  A    between atoms: _479  and  _480
REMARK  199  A    between atoms: _479  and  _482
REMARK  200  A    between atoms: _485  and  _487
REMARK  201  A    between atoms: _487  and  _488
REMARK  202  A    between atoms: _487  and  _490
REMARK  203  A    between atoms: _490  and  _491
REMARK  204  A    between atoms: _494  and  _496
REMARK  205  A    between atoms: _496  and  _497
REMARK  206  A    between atoms: _496  and  _499
REMARK  207  A    between atoms: _499  and  _500
REMARK  208  A    between atoms: _503  and  _505
REMARK  209  A    between atoms: _505  and  _506
REMARK  210  A    between atoms: _508  and  _510
REMARK  211  A    between atoms: _510  and  _511
REMARK  212  A    between atoms: _510  and  _513
REMARK  213  A    between atoms: _513  and  _514
REMARK  214  A    between atoms: _514  and  _515
REMARK  215  A    between atoms: _515  and  _516
REMARK  216  A    between atoms: _525  and  _527
REMARK  217  A    between atoms: _527  and  _528
REMARK  218  A    between atoms: _527  and  _530
REMARK  219  A    between atoms: _530  and  _531
REMARK                            x       y       z     vdW  Elec       q    Type
REMARK                         _______ _______ _______ _____ _____    ______ ____
ROOT
ATOM      1  CA  VAL A   1      17.797  -9.643  11.811  0.00  0.00    +0.133 C 
ENDROOT
BRANCH   1   2
ATOM      2  CB  VAL A   1      16.940  -8.836  12.845  0.00  0.00    +0.023 C 
ATOM      3  CG2 VAL A   1      16.224  -9.697  13.890  0.00  0.00    +0.002 C 
ATOM      4  CG1 VAL A   1      15.856  -7.997  12.152  0.00  0.00    +0.002 C 
ENDBRANCH   1   2
BRANCH   1   5
ATOM      5  N   VAL A   1      16.948 -10.574  11.073  0.00  0.00    -0.239 NA
ATOM      6  H   VAL A   1      16.689 -11.475  11.524  0.00  0.00    +0.142 HD
ENDBRANCH   1   5
BRANCH   1   7
ATOM      7  C   VAL A   1      18.914 -10.412  12.497  0.00  0.00    +0.224 C 
ATOM      8  O   VAL A   1      18.822 -11.610  12.741  0.00  0.00    -0.287 OA
ENDBRANCH   1   7
TORSDOF 3
REMARK  Name = ../refined-set-2016/1hpx/1hpx_pocket.pdb
REMARK  219 active torsions:
REMARK  status: ('A' for Active; 'I' for Inactive)
REMARK    1  A    between atoms: _1  and  _3
REMARK    2  A    between atoms: _3  and  _4
REMARK    3  A    between atoms: _3  and  _6
REMARK    4  A    between atoms: _6  and  _7
REMARK    5  A    between atoms: _7  and  _8
REMARK    6  A    between atoms: _8  and  _9
REMARK    7  A    between atoms: _18  and  _20
REMARK    8  A    between atoms: _20  and  _21
REMARK    9  A    between atoms: _20  and  _23
REMARK   10  A    between atoms: _23  and  _24
REMARK   11  A    between atoms: _27  and  _29
REMARK   12  A    between atoms: _29  and  _30
REMARK   13  A    between atoms: _29  and  _32
REMARK   14  A    between atoms: _32  and  _33
REMARK   15  A    between atoms: _36  and  _38
REMARK   16  A    between atoms: _38  and  _39
REMARK   17  A    between atoms: _38  and  _41
REMARK   18  A    between atoms: _41  and  _42
REMARK   19  A    between atoms: _45  and  _47
REMARK   20  A    between atoms: _47  and  _48
REMARK   21  A    between atoms: _47  and  _50
REMARK   22  A    between atoms: _50  and  _51
REMARK   23  A    between atoms: _54  and  _56
REMARK   24  A    between atoms: _56  and  _57
REMARK   25  A    between atoms: _59  and  _61
REMARK   26  A    between atoms: _61  and  _62
REMARK   27  A    between atoms: _65  and  _67
REMARK   28  A    between atoms: _67  and  _68
REMARK   29  A    between atoms: _67  and  _70
REMARK   30  A    between atoms: _70  and  _71
REMARK   31  A    between atoms: _74  and  _76
REMARK   32  A    between atoms: _76  and  _77
REMARK   33  A    between atoms: _76  and  _79
REMARK   34  A    between atoms: _79  and  _80
REMARK   35  A    between atoms: _83  and  _85
REMARK   36  A    between atoms: _85  and  _86
REMARK   37  A    between atoms: _85  and  _88
REMARK   38  A    between atoms: _88  and  _89
REMARK   39  A    between atoms: _92  and  _94
REMARK   40  A    between atoms: _94  and  _95
REMARK   41  A    between atoms: _94  and  _97
REMARK   42  A    between atoms: _100  and  _102
REMARK   43  A    between atoms: _102  and  _103
REMARK   44  A    between atoms: _102  and  _105
REMARK   45  A    between atoms: _105  and  _106
REMARK   46  A    between atoms: _106  and  _107
REMARK   47  A    between atoms: _107  and  _108
REMARK   48  A    between atoms: _108  and  _109
REMARK   49  A    between atoms: _113  and  _115
REMARK   50  A    between atoms: _115  and  _116
REMARK   51  A    between atoms: _115  and  _118
REMARK   52  A    between atoms: _118  and  _119
REMARK   53  A    between atoms: _119  and  _120
REMARK   54  A    between atoms: _122  and  _124
REMARK   55  A    between atoms: _124  and  _125
REMARK   56  A    between atoms: _124  and  _127
REMARK   57  A    between atoms: _127  and  _128
REMARK   58  A    between atoms: _131  and  _133
REMARK   59  A    between atoms: _133  and  _134
REMARK   60  A    between atoms: _136  and  _138
REMARK   61  A    between atoms: _138  and  _139
REMARK   62  A    between atoms: _141  and  _143
REMARK   63  A    between atoms: _143  and  _144
REMARK   64  A    between atoms: _143  and  _146
REMARK   65  A    between atoms: _146  and  _147
REMARK   66  A    between atoms: _150  and  _152
REMARK   67  A    between atoms: _152  and  _153
REMARK   68  A    between atoms: _155  and  _157
REMARK   69  A    between atoms: _157  and  _158
REMARK   70  A    between atoms: _160  and  _162
REMARK   71  A    between atoms: _162  and  _163
REMARK   72  A    between atoms: _162  and  _165
REMARK   73  A    between atoms: _165  and  _166
REMARK   74  A    between atoms: _172  and  _174
REMARK   75  A    between atoms: _174  and  _175
REMARK   76  A    between atoms: _174  and  _177
REMARK   77  A    between atoms: _177  and  _178
REMARK   78  A    between atoms: _181  and  _183
REMARK   79  A    between atoms: _183  and  _184
REMARK   80  A    between atoms: _183  and  _186
REMARK   81  A    between atoms: _189  and  _191
REMARK   82  A    between atoms: _191  and  _192
REMARK   83  A    between atoms: _191  and  _194
REMARK   84  A    between atoms: _194  and  _195
REMARK   85  A    between atoms: _198  and  _200
REMARK   86  A    between atoms: _200  and  _201
REMARK   87  A    between atoms: _200  and  _203
REMARK   88  A    between atoms: _203  and  _204
REMARK   89  A    between atoms: _208  and  _209
REMARK   90  A    between atoms: _214  and  _216
REMARK   91  A    between atoms: _216  and  _217
REMARK   92  A    between atoms: _216  and  _219
REMARK   93  A    between atoms: _222  and  _224
REMARK   94  A    between atoms: _224  and  _225
REMARK   95  A    between atoms: _224  and  _227
REMARK   96  A    between atoms: _227  and  _228
REMARK   97  A    between atoms: _233  and  _235
REMARK   98  A    between atoms: _235  and  _236
REMARK   99  A    between atoms: _235  and  _238
REMARK  100  A    between atoms: _238  and  _239
REMARK  101  A    between atoms: _242  and  _244
REMARK  102  A    between atoms: _244  and  _245
REMARK  103  A    between atoms: _244  and  _247
REMARK  104  A    between atoms: _247  and  _248
REMARK  105  A    between atoms: _251  and  _253
REMARK  106  A    between atoms: _253  and  _254
REMARK  107  A    between atoms: _256  and  _258
REMARK  108  A    between atoms: _258  and  _259
REMARK  109  A    between atoms: _258  and  _261
REMARK  110  A    between atoms: _261  and  _262
REMARK  111  A    between atoms: _262  and  _263
REMARK  112  A    between atoms: _263  and  _264
REMARK  113  A    between atoms: _273  and  _275
REMARK  114  A    between atoms: _275  and  _276
REMARK  115  A    between atoms: _275  and  _278
REMARK  116  A    between atoms: _278  and  _279
REMARK  117  A    between atoms: _279  and  _280
REMARK  118  A    between atoms: _280  and  _281
REMARK  119  A    between atoms: _290  and  _292
REMARK  120  A    between atoms: _292  and  _293
REMARK  121  A    between atoms: _292  and  _295
REMARK  122  A    between atoms: _295  and  _296
REMARK  123  A    between atoms: _299  and  _301
REMARK  124  A    between atoms: _301  and  _302
REMARK  125  A    between atoms: _301  and  _304
REMARK  126  A    between atoms: _304  and  _305
REMARK  127  A    between atoms: _308  and  _310
REMARK  128  A    between atoms: _310  and  _311
REMARK  129  A    between atoms: _310  and  _313
REMARK  130  A    between atoms: _313  and  _314
REMARK  131  A    between atoms: _317  and  _319
REMARK  132  A    between atoms: _319  and  _320
REMARK  133  A    between atoms: _319  and  _322
REMARK  134  A    between atoms: _322  and  _323
REMARK  135  A    between atoms: _326  and  _328
REMARK  136  A    between atoms: _328  and  _329
REMARK  137  A    between atoms: _331  and  _333
REMARK  138  A    between atoms: _333  and  _334
REMARK  139  A    between atoms: _337  and  _339
REMARK  140  A    between atoms: _339  and  _340
REMARK  141  A    between atoms: _339  and  _342
REMARK  142  A    between atoms: _342  and  _343
REMARK  143  A    between atoms: _346  and  _348
REMARK  144  A    between atoms: _348  and  _349
REMARK  145  A    between atoms: _348  and  _351
REMARK  146  A    between atoms: _351  and  _352
REMARK  147  A    between atoms: _355  and  _357
REMARK  148  A    between atoms: _357  and  _358
REMARK  149  A    between atoms: _357  and  _360
REMARK  150  A    between atoms: _360  and  _361
REMARK  151  A    between atoms: _364  and  _366
REMARK  152  A    between atoms: _366  and  _367
REMARK  153  A    between atoms: _366  and  _369
REMARK  154  A    between atoms: _372  and  _374
REMARK  155  A    between atoms: _374  and  _375
REMARK  156  A    between atoms: _374  and  _377
REMARK  157  A    between atoms: _377  and  _378
REMARK  158  A    between atoms: _378  and  _379
REMARK  159  A    between atoms: _379  and  _380
REMARK  160  A    between atoms: _380  and  _381
REMARK  161  A    between atoms: _385  and  _387
REMARK  162  A    between atoms: _387  and  _388
REMARK  163  A    between atoms: _387  and  _390
REMARK  164  A    between atoms: _390  and  _391
REMARK  165  A    between atoms: _394  and  _396
REMARK  166  A    between atoms: _396  and  _397
REMARK  167  A    between atoms: _399  and  _401
REMARK  168  A    between atoms: _401  and  _402
REMARK  169  A    between atoms: _404  and  _406
REMARK  170  A    between atoms: _406  and  _407
REMARK  171  A    between atoms: _406  and  _409
REMARK  172  A    between atoms: _409  and  _410
REMARK  173  A    between atoms: _413  and  _415
REMARK  174  A    between atoms: _415  and  _416
REMARK  175  A    between atoms: _418  and  _420
REMARK  176  A    between atoms: _420  and  _421
REMARK  177  A    between atoms: _423  and  _425
REMARK  178  A    between atoms: _425  and  _426
REMARK  179  A    between atoms: _425  and  _428
REMARK  180  A    between atoms: _428  and  _429
REMARK  181  A    between atoms: _435  and  _437
REMARK  182  A    between atoms: _437  and  _438
REMARK  183  A    between atoms: _437  and  _440
REMARK  184  A    between atoms: _440  and  _441
REMARK  185  A    between atoms: _444  and  _446
REMARK  186  A    between atoms: _446  and  _447
REMARK  187  A    between atoms: _446  and  _449
REMARK  188  A    between atoms: _452  and  _454
REMARK  189  A    between atoms: _454  and  _455
REMARK  190  A    between atoms: _454  and  _457
REMARK  191  A    between atoms: _457  and  _458
REMARK  192  A    between atoms: _461  and  _463
REMARK  193  A    between atoms: _463  and  _464
REMARK  194  A    between atoms: _463  and  _466
REMARK  195  A    between atoms: _466  and  _467
REMARK  196  A    between atoms: _471  and  _472
REMARK  197  A    between atoms: _477  and  _479
REMARK  198  A    between atoms: _479  and  _480
REMARK  199  A    between atoms: _479  and  _482
REMARK  200  A    between atoms: _485  and  _487
REMARK  201  A    between atoms: _487  and  _488
REMARK  202  A    between atoms: _487  and  _490
REMARK  203  A    between atoms: _490  and  _491
REMARK  204  A    between atoms: _494  and  _496
REMARK  205  A    between atoms: _496  and  _497
REMARK  206  A    between atoms: _496  and  _499
REMARK  207  A    between atoms: _499  and  _500
REMARK  208  A    between atoms: _503  and  _505
REMARK  209  A    between atoms: _505  and  _506
REMARK  210  A    between atoms: _508  and  _510
REMARK  211  A    between atoms: _510  and  _511
REMARK  212  A    between atoms: _510  and  _513
REMARK  213  A    between atoms: _513  and  _514
REMARK  214  A    between atoms: _514  and  _515
REMARK  215  A    between atoms: _515  and  _516
REMARK  216  A    between atoms: _525  and  _527
REMARK  217  A    between atoms: _527  and  _528
REMARK  218  A    between atoms: _527  and  _530
REMARK  219  A    between atoms: _530  and  _531
REMARK                            x       y       z     vdW  Elec       q    Type
REMARK                         _______ _______ _______ _____ _____    ______ ____
ROOT
ATOM      1  CA  LEU A   1      18.573  -6.358  16.585  0.00  0.00    +0.133 C 
ENDROOT
BRANCH   1   2
ATOM      2  N   LEU A   1      18.717  -5.619  17.819  0.00  0.00    -0.239 NA
ATOM      3  H   LEU A   1      17.982  -4.933  18.085  0.00  0.00    +0.142 HD
ENDBRANCH   1   2
BRANCH   1   4
ATOM      4  C   LEU A   1      18.933  -5.454  15.415  0.00  0.00    +0.224 C 
ATOM      5  O   LEU A   1      18.514  -4.313  15.372  0.00  0.00    -0.287 OA
ENDBRANCH   1   4
BRANCH   1   6
ATOM      6  CB  LEU A   1      17.138  -6.868  16.450  0.00  0.00    +0.025 C 
BRANCH   6   7
ATOM      7  CG  LEU A   1      16.479  -7.613  17.606  0.00  0.00    +0.002 C 
ATOM      8  CD2 LEU A   1      17.248  -8.842  18.011  0.00  0.00    +0.000 C 
ATOM      9  CD1 LEU A   1      15.083  -8.023  17.254  0.00  0.00    +0.000 C 
ENDBRANCH   6   7
ENDBRANCH   1   6
TORSDOF 4
REMARK  Name = ../refined-set-2016/1hpx/1hpx_pocket.pdb
REMARK  219 active torsions:
REMARK  status: ('A' for Active; 'I' for Inactive)
REMARK    1  A    between atoms: _1  and  _3
REMARK    2  A    between atoms: _3  and  _4
REMARK    3  A    between atoms: _3  and  _6
REMARK    4  A    between atoms: _6  and  _7
REMARK    5  A    between atoms: _7  and  _8
REMARK    6  A    between atoms: _8  and  _9
REMARK    7  A    between atoms: _18  and  _20
REMARK    8  A    between atoms: _20  and  _21
REMARK    9  A    between atoms: _20  and  _23
REMARK   10  A    between atoms: _23  and  _24
REMARK   11  A    between atoms: _27  and  _29
REMARK   12  A    between atoms: _29  and  _30
REMARK   13  A    between atoms: _29  and  _32
REMARK   14  A    between atoms: _32  and  _33
REMARK   15  A    between atoms: _36  and  _38
REMARK   16  A    between atoms: _38  and  _39
REMARK   17  A    between atoms: _38  and  _41
REMARK   18  A    between atoms: _41  and  _42
REMARK   19  A    between atoms: _45  and  _47
REMARK   20  A    between atoms: _47  and  _48
REMARK   21  A    between atoms: _47  and  _50
REMARK   22  A    between atoms: _50  and  _51
REMARK   23  A    between atoms: _54  and  _56
REMARK   24  A    between atoms: _56  and  _57
REMARK   25  A    between atoms: _59  and  _61
REMARK   26  A    between atoms: _61  and  _62
REMARK   27  A    between atoms: _65  and  _67
REMARK   28  A    between atoms: _67  and  _68
REMARK   29  A    between atoms: _67  and  _70
REMARK   30  A    between atoms: _70  and  _71
REMARK   31  A    between atoms: _74  and  _76
REMARK   32  A    between atoms: _76  and  _77
REMARK   33  A    between atoms: _76  and  _79
REMARK   34  A    between atoms: _79  and  _80
REMARK   35  A    between atoms: _83  and  _85
REMARK   36  A    between atoms: _85  and  _86
REMARK   37  A    between atoms: _85  and  _88
REMARK   38  A    between atoms: _88  and  _89
REMARK   39  A    between atoms: _92  and  _94
REMARK   40  A    between atoms: _94  and  _95
REMARK   41  A    between atoms: _94  and  _97
REMARK   42  A    between atoms: _100  and  _102
REMARK   43  A    between atoms: _102  and  _103
REMARK   44  A    between atoms: _102  and  _105
REMARK   45  A    between atoms: _105  and  _106
REMARK   46  A    between atoms: _106  and  _107
REMARK   47  A    between atoms: _107  and  _108
REMARK   48  A    between atoms: _108  and  _109
REMARK   49  A    between atoms: _113  and  _115
REMARK   50  A    between atoms: _115  and  _116
REMARK   51  A    between atoms: _115  and  _118
REMARK   52  A    between atoms: _118  and  _119
REMARK   53  A    between atoms: _119  and  _120
REMARK   54  A    between atoms: _122  and  _124
REMARK   55  A    between atoms: _124  and  _125
REMARK   56  A    between atoms: _124  and  _127
REMARK   57  A    between atoms: _127  and  _128
REMARK   58  A    between atoms: _131  and  _133
REMARK   59  A    between atoms: _133  and  _134
REMARK   60  A    between atoms: _136  and  _138
REMARK   61  A    between atoms: _138  and  _139
REMARK   62  A    between atoms: _141  and  _143
REMARK   63  A    between atoms: _143  and  _144
REMARK   64  A    between atoms: _143  and  _146
REMARK   65  A    between atoms: _146  and  _147
REMARK   66  A    between atoms: _150  and  _152
REMARK   67  A    between atoms: _152  and  _153
REMARK   68  A    between atoms: _155  and  _157
REMARK   69  A    between atoms: _157  and  _158
REMARK   70  A    between atoms: _160  and  _162
REMARK   71  A    between atoms: _162  and  _163
REMARK   72  A    between atoms: _162  and  _165
REMARK   73  A    between atoms: _165  and  _166
REMARK   74  A    between atoms: _172  and  _174
REMARK   75  A    between atoms: _174  and  _175
REMARK   76  A    between atoms: _174  and  _177
REMARK   77  A    between atoms: _177  and  _178
REMARK   78  A    between atoms: _181  and  _183
REMARK   79  A    between atoms: _183  and  _184
REMARK   80  A    between atoms: _183  and  _186
REMARK   81  A    between atoms: _189  and  _191
REMARK   82  A    between atoms: _191  and  _192
REMARK   83  A    between atoms: _191  and  _194
REMARK   84  A    between atoms: _194  and  _195
REMARK   85  A    between atoms: _198  and  _200
REMARK   86  A    between atoms: _200  and  _201
REMARK   87  A    between atoms: _200  and  _203
REMARK   88  A    between atoms: _203  and  _204
REMARK   89  A    between atoms: _208  and  _209
REMARK   90  A    between atoms: _214  and  _216
REMARK   91  A    between atoms: _216  and  _217
REMARK   92  A    between atoms: _216  and  _219
REMARK   93  A    between atoms: _222  and  _224
REMARK   94  A    between atoms: _224  and  _225
REMARK   95  A    between atoms: _224  and  _227
REMARK   96  A    between atoms: _227  and  _228
REMARK   97  A    between atoms: _233  and  _235
REMARK   98  A    between atoms: _235  and  _236
REMARK   99  A    between atoms: _235  and  _238
REMARK  100  A    between atoms: _238  and  _239
REMARK  101  A    between atoms: _242  and  _244
REMARK  102  A    between atoms: _244  and  _245
REMARK  103  A    between atoms: _244  and  _247
REMARK  104  A    between atoms: _247  and  _248
REMARK  105  A    between atoms: _251  and  _253
REMARK  106  A    between atoms: _253  and  _254
REMARK  107  A    between atoms: _256  and  _258
REMARK  108  A    between atoms: _258  and  _259
REMARK  109  A    between atoms: _258  and  _261
REMARK  110  A    between atoms: _261  and  _262
REMARK  111  A    between atoms: _262  and  _263
REMARK  112  A    between atoms: _263  and  _264
REMARK  113  A    between atoms: _273  and  _275
REMARK  114  A    between atoms: _275  and  _276
REMARK  115  A    between atoms: _275  and  _278
REMARK  116  A    between atoms: _278  and  _279
REMARK  117  A    between atoms: _279  and  _280
REMARK  118  A    between atoms: _280  and  _281
REMARK  119  A    between atoms: _290  and  _292
REMARK  120  A    between atoms: _292  and  _293
REMARK  121  A    between atoms: _292  and  _295
REMARK  122  A    between atoms: _295  and  _296
REMARK  123  A    between atoms: _299  and  _301
REMARK  124  A    between atoms: _301  and  _302
REMARK  125  A    between atoms: _301  and  _304
REMARK  126  A    between atoms: _304  and  _305
REMARK  127  A    between atoms: _308  and  _310
REMARK  128  A    between atoms: _310  and  _311
REMARK  129  A    between atoms: _310  and  _313
REMARK  130  A    between atoms: _313  and  _314
REMARK  131  A    between atoms: _317  and  _319
REMARK  132  A    between atoms: _319  and  _320
REMARK  133  A    between atoms: _319  and  _322
REMARK  134  A    between atoms: _322  and  _323
REMARK  135  A    between atoms: _326  and  _328
REMARK  136  A    between atoms: _328  and  _329
REMARK  137  A    between atoms: _331  and  _333
REMARK  138  A    between atoms: _333  and  _334
REMARK  139  A    between atoms: _337  and  _339
REMARK  140  A    between atoms: _339  and  _340
REMARK  141  A    between atoms: _339  and  _342
REMARK  142  A    between atoms: _342  and  _343
REMARK  143  A    between atoms: _346  and  _348
REMARK  144  A    between atoms: _348  and  _349
REMARK  145  A    between atoms: _348  and  _351
REMARK  146  A    between atoms: _351  and  _352
REMARK  147  A    between atoms: _355  and  _357
REMARK  148  A    between atoms: _357  and  _358
REMARK  149  A    between atoms: _357  and  _360
REMARK  150  A    between atoms: _360  and  _361
REMARK  151  A    between atoms: _364  and  _366
REMARK  152  A    between atoms: _366  and  _367
REMARK  153  A    between atoms: _366  and  _369
REMARK  154  A    between atoms: _372  and  _374
REMARK  155  A    between atoms: _374  and  _375
REMARK  156  A    between atoms: _374  and  _377
REMARK  157  A    between atoms: _377  and  _378
REMARK  158  A    between atoms: _378  and  _379
REMARK  159  A    between atoms: _379  and  _380
REMARK  160  A    between atoms: _380  and  _381
REMARK  161  A    between atoms: _385  and  _387
REMARK  162  A    between atoms: _387  and  _388
REMARK  163  A    between atoms: _387  and  _390
REMARK  164  A    between atoms: _390  and  _391
REMARK  165  A    between atoms: _394  and  _396
REMARK  166  A    between atoms: _396  and  _397
REMARK  167  A    between atoms: _399  and  _401
REMARK  168  A    between atoms: _401  and  _402
REMARK  169  A    between atoms: _404  and  _406
REMARK  170  A    between atoms: _406  and  _407
REMARK  171  A    between atoms: _406  and  _409
REMARK  172  A    between atoms: _409  and  _410
REMARK  173  A    between atoms: _413  and  _415
REMARK  174  A    between atoms: _415  and  _416
REMARK  175  A    between atoms: _418  and  _420
REMARK  176  A    between atoms: _420  and  _421
REMARK  177  A    between atoms: _423  and  _425
REMARK  178  A    between atoms: _425  and  _426
REMARK  179  A    between atoms: _425  and  _428
REMARK  180  A    between atoms: _428  and  _429
REMARK  181  A    between atoms: _435  and  _437
REMARK  182  A    between atoms: _437  and  _438
REMARK  183  A    between atoms: _437  and  _440
REMARK  184  A    between atoms: _440  and  _441
REMARK  185  A    between atoms: _444  and  _446
REMARK  186  A    between atoms: _446  and  _447
REMARK  187  A    between atoms: _446  and  _449
REMARK  188  A    between atoms: _452  and  _454
REMARK  189  A    between atoms: _454  and  _455
REMARK  190  A    between atoms: _454  and  _457
REMARK  191  A    between atoms: _457  and  _458
REMARK  192  A    between atoms: _461  and  _463
REMARK  193  A    between atoms: _463  and  _464
REMARK  194  A    between atoms: _463  and  _466
REMARK  195  A    between atoms: _466  and  _467
REMARK  196  A    between atoms: _471  and  _472
REMARK  197  A    between atoms: _477  and  _479
REMARK  198  A    between atoms: _479  and  _480
REMARK  199  A    between atoms: _479  and  _482
REMARK  200  A    between atoms: _485  and  _487
REMARK  201  A    between atoms: _487  and  _488
REMARK  202  A    between atoms: _487  and  _490
REMARK  203  A    between atoms: _490  and  _491
REMARK  204  A    between atoms: _494  and  _496
REMARK  205  A    between atoms: _496  and  _497
REMARK  206  A    between atoms: _496  and  _499
REMARK  207  A    between atoms: _499  and  _500
REMARK  208  A    between atoms: _503  and  _505
REMARK  209  A    between atoms: _505  and  _506
REMARK  210  A    between atoms: _508  and  _510
REMARK  211  A    between atoms: _510  and  _511
REMARK  212  A    between atoms: _510  and  _513
REMARK  213  A    between atoms: _513  and  _514
REMARK  214  A    between atoms: _514  and  _515
REMARK  215  A    between atoms: _515  and  _516
REMARK  216  A    between atoms: _525  and  _527
REMARK  217  A    between atoms: _527  and  _528
REMARK  218  A    between atoms: _527  and  _530
REMARK  219  A    between atoms: _530  and  _531
REMARK                            x       y       z     vdW  Elec       q    Type
REMARK                         _______ _______ _______ _____ _____    ______ ____
ROOT
ATOM      1  CA  ILE A   5      13.261   1.653  16.793  0.00  0.00    +0.149 C 
ENDROOT
BRANCH   1   3
ATOM      2  C   ASN A   4      14.600   2.949  15.209  0.00  0.00    +0.241 C 
ATOM      3  N   ILE A   5      14.390   1.820  15.875  0.00  0.00    -0.297 N 
ATOM      4  H   ILE A   5      15.050   1.027  15.740  0.00  0.00    +0.150 HD
ATOM      5  O   ASN A   4      13.924   3.948  15.414  0.00  0.00    -0.273 OA
BRANCH   2   6
ATOM      6  CA  ASN A   4      15.680   2.937  14.110  0.00  0.00    +0.158 C 
BRANCH   6   8
ATOM      7  C   VAL A   3      14.298   2.833  12.098  0.00  0.00    +0.241 C 
ATOM      8  N   ASN A   4      15.152   3.497  12.859  0.00  0.00    -0.297 N 
ATOM      9  H   ASN A   4      15.459   4.445  12.562  0.00  0.00    +0.150 HD
ATOM     10  O   VAL A   3      14.024   1.658  12.273  0.00  0.00    -0.273 OA
BRANCH   7  11
ATOM     11  CA  VAL A   3      13.717   3.601  10.916  0.00  0.00    +0.149 C 
BRANCH  11  13
ATOM     12  C   PRO A   2      13.785   2.909   8.582  0.00  0.00    +0.241 C 
ATOM     13  N   VAL A   3      13.450   2.650   9.841  0.00  0.00    -0.297 N 
ATOM     14  H   VAL A   3      12.986   1.747  10.067  0.00  0.00    +0.150 HD
ATOM     15  O   PRO A   2      14.418   3.899   8.243  0.00  0.00    -0.273 OA
BRANCH  12  22
ATOM     16  C   THR A   1      14.500  -0.073   8.343  0.00  0.00    +0.244 C 
ATOM     17  O   THR A   1      15.583   0.450   8.085  0.00  0.00    -0.273 OA
ATOM     18  N   PRO A   2      13.315   0.496   8.062  0.00  0.00    -0.272 N 
ATOM     19  CD  PRO A   2      11.977  -0.098   8.181  0.00  0.00    +0.094 C 
ATOM     20  CG  PRO A   2      11.087   0.775   7.334  0.00  0.00    +0.024 C 
ATOM     21  CB  PRO A   2      11.811   2.100   7.277  0.00  0.00    +0.031 C 
ATOM     22  CA  PRO A   2      13.285   1.878   7.567  0.00  0.00    +0.152 C 
BRANCH  16  23
ATOM     23  CA  THR A   1      14.427  -1.461   9.007  0.00  0.00    +0.172 C 
BRANCH  23  24
ATOM     24  N   THR A   1      15.593  -2.285   8.630  0.00  0.00    -0.236 NA
ATOM     25  H   THR A   1      16.434  -2.304   9.241  0.00  0.00    +0.142 HD
ENDBRANCH  23  24
BRANCH  23  26
ATOM     26  CB  THR A   1      14.337  -1.395  10.580  0.00  0.00    +0.135 C 
ATOM     27  CG2 THR A   1      15.586  -0.875  11.256  0.00  0.00    +0.034 C 
BRANCH  26  28
ATOM     28  OG1 THR A   1      13.207  -0.641  11.007  0.00  0.00    -0.383 OA
ATOM     29  HG1 THR A   1      13.277   0.283  10.658  0.00  0.00    +0.210 HD
ENDBRANCH  26  28
ENDBRANCH  23  26
ENDBRANCH  16  23
ENDBRANCH  12  22
ENDBRANCH  11  13
BRANCH  11  30
ATOM     30  CB  VAL A   3      12.377   4.399  11.167  0.00  0.00    +0.027 C 
ATOM     31  CG2 VAL A   3      12.339   5.287  12.406  0.00  0.00    +0.002 C 
ATOM     32  CG1 VAL A   3      11.191   3.487  11.209  0.00  0.00    +0.002 C 
ENDBRANCH  11  30
ENDBRANCH   7  11
ENDBRANCH   6   8
BRANCH   6  33
ATOM     33  CB  ASN A   4      16.883   3.760  14.548  0.00  0.00    +0.114 C 
BRANCH  33  34
ATOM     34  CG  ASN A   4      18.056   3.591  13.611  0.00  0.00    +0.222 C 
ATOM     35  OD1 ASN A   4      18.485   2.507  13.279  0.00  0.00    -0.275 OA
ATOM     36  ND2 ASN A   4      18.601   4.696  13.167  0.00  0.00    -0.329 N 
ATOM     37 HD21 ASN A   4      18.221   5.618  13.462  0.00  0.00    +0.145 HD
ATOM     38 HD22 ASN A   4      19.414   4.651  12.520  0.00  0.00    +0.145 HD
ENDBRANCH  33  34
ENDBRANCH   6  33
ENDBRANCH   2   6
ENDBRANCH   1   3
BRANCH   1  39
ATOM     39  C   ILE A   5      13.812   1.351  18.172  0.00  0.00    +0.241 C 
ATOM     40  N   ILE A   6      13.481   2.199  19.156  0.00  0.00    -0.297 N 
ATOM     41  H   ILE A   6      12.990   3.088  18.932  0.00  0.00    +0.150 HD
ATOM     42  O   ILE A   5      14.544   0.388  18.330  0.00  0.00    -0.273 OA
BRANCH  40  43
ATOM     43  CA  ILE A   6      13.811   1.875  20.551  0.00  0.00    +0.149 C 
BRANCH  43  44
ATOM     44  C   ILE A   6      12.588   1.276  21.189  0.00  0.00    +0.241 C 
ATOM     45  N   GLY A   7      12.746   0.047  21.593  0.00  0.00    -0.295 N 
ATOM     46  H   GLY A   7      13.680  -0.407  21.540  0.00  0.00    +0.150 HD
ATOM     47  O   ILE A   6      11.539   1.888  21.247  0.00  0.00    -0.273 OA
BRANCH  45  48
ATOM     48  CA  GLY A   7      11.606  -0.681  22.118  0.00  0.00    +0.176 C 
BRANCH  48  49
ATOM     49  C   GLY A   7      11.702  -0.777  23.603  0.00  0.00    +0.243 C 
ATOM     50  O   GLY A   7      12.618  -0.225  24.227  0.00  0.00    -0.273 OA
ATOM     51  N   ARG A   8      10.720  -1.487  24.168  0.00  0.00    -0.298 N 
ATOM     52  H   ARG A   8      10.077  -2.052  23.577  0.00  0.00    +0.150 HD
BRANCH  51  53
ATOM     53  CA  ARG A   8      10.553  -1.465  25.644  0.00  0.00    +0.137 C 
BRANCH  53  54
ATOM     54  C   ARG A   8      11.719  -1.988  26.487  0.00  0.00    +0.227 C 
ATOM     55  O   ARG A   8      11.930  -1.552  27.614  0.00  0.00    -0.286 OA
ENDBRANCH  53  54
BRANCH  53  56
ATOM     56  CB  ARG A   8       9.305  -2.193  26.081  0.00  0.00    +0.031 C 
BRANCH  56  57
ATOM     57  CG  ARG A   8       7.958  -1.669  25.598  0.00  0.00    +0.045 C 
BRANCH  57  58
ATOM     58  CD  ARG A   8       6.795  -2.396  26.258  0.00  0.00    +0.174 C 
BRANCH  58  59
ATOM     59  NE  ARG A   8       6.726  -3.803  25.852  0.00  0.00    -0.265 N 
ATOM     60  CZ  ARG A   8       7.197  -4.819  26.609  0.00  0.00    +0.342 C 
ATOM     61  NH2 ARG A   8       7.722  -4.582  27.817  0.00  0.00    -0.292 N 
ATOM     62 HH21 ARG A   8       8.082  -5.371  28.392  0.00  0.00    +0.255 HD
ATOM     63 HH22 ARG A   8       7.770  -3.609  28.181  0.00  0.00    +0.255 HD
ATOM     64  NH1 ARG A   8       7.163  -6.046  26.115  0.00  0.00    -0.292 N 
ATOM     65 HH11 ARG A   8       7.520  -6.844  26.679  0.00  0.00    +0.255 HD
ATOM     66 HH12 ARG A   8       6.780  -6.213  25.163  0.00  0.00    +0.255 HD
ATOM     67  HE  ARG A   8       6.292  -4.031  24.935  0.00  0.00    +0.259 HD
ENDBRANCH  58  59
ENDBRANCH  57  58
ENDBRANCH  56  57
ENDBRANCH  53  56
ENDBRANCH  51  53
ENDBRANCH  48  49
ENDBRANCH  45  48
ENDBRANCH  43  44
BRANCH  43  68
ATOM     68  CB  ILE A   6      14.255   3.110  21.362  0.00  0.00    +0.027 C 
ATOM     69  CG2 ILE A   6      14.792   2.691  22.720  0.00  0.00    +0.002 C 
BRANCH  68  70
ATOM     70  CG1 ILE A   6      15.291   3.961  20.660  0.00  0.00    +0.002 C 
ATOM     71  CD1 ILE A   6      16.606   3.220  20.362  0.00  0.00    +0.000 C 
ENDBRANCH  68  70
ENDBRANCH  43  68
ENDBRANCH  40  43
ENDBRANCH   1  39
BRANCH   1  72
ATOM     72  CB  ILE A   5      12.387   0.495  16.281  0.00  0.00    +0.027 C 
ATOM     73  CG2 ILE A   5      11.323   0.087  17.281  0.00  0.00    +0.002 C 
BRANCH  72  74
ATOM     74  CG1 ILE A   5      11.656   0.839  14.997  0.00  0.00    +0.002 C 
ATOM     75  CD1 ILE A   5      11.048  -0.380  14.273  0.00  0.00    +0.000 C 
ENDBRANCH  72  74
ENDBRANCH   1  72
TORSDOF 28
REMARK  Name = ../refined-set-2016/1hpx/1hpx_pocket.pdb
REMARK  219 active torsions:
REMARK  status: ('A' for Active; 'I' for Inactive)
REMARK    1  A    between atoms: _1  and  _3
REMARK    2  A    between atoms: _3  and  _4
REMARK    3  A    between atoms: _3  and  _6
REMARK    4  A    between atoms: _6  and  _7
REMARK    5  A    between atoms: _7  and  _8
REMARK    6  A    between atoms: _8  and  _9
REMARK    7  A    between atoms: _18  and  _20
REMARK    8  A    between atoms: _20  and  _21
REMARK    9  A    between atoms: _20  and  _23
REMARK   10  A    between atoms: _23  and  _24
REMARK   11  A    between atoms: _27  and  _29
REMARK   12  A    between atoms: _29  and  _30
REMARK   13  A    between atoms: _29  and  _32
REMARK   14  A    between atoms: _32  and  _33
REMARK   15  A    between atoms: _36  and  _38
REMARK   16  A    between atoms: _38  and  _39
REMARK   17  A    between atoms: _38  and  _41
REMARK   18  A    between atoms: _41  and  _42
REMARK   19  A    between atoms: _45  and  _47
REMARK   20  A    between atoms: _47  and  _48
REMARK   21  A    between atoms: _47  and  _50
REMARK   22  A    between atoms: _50  and  _51
REMARK   23  A    between atoms: _54  and  _56
REMARK   24  A    between atoms: _56  and  _57
REMARK   25  A    between atoms: _59  and  _61
REMARK   26  A    between atoms: _61  and  _62
REMARK   27  A    between atoms: _65  and  _67
REMARK   28  A    between atoms: _67  and  _68
REMARK   29  A    between atoms: _67  and  _70
REMARK   30  A    between atoms: _70  and  _71
REMARK   31  A    between atoms: _74  and  _76
REMARK   32  A    between atoms: _76  and  _77
REMARK   33  A    between atoms: _76  and  _79
REMARK   34  A    between atoms: _79  and  _80
REMARK   35  A    between atoms: _83  and  _85
REMARK   36  A    between atoms: _85  and  _86
REMARK   37  A    between atoms: _85  and  _88
REMARK   38  A    between atoms: _88  and  _89
REMARK   39  A    between atoms: _92  and  _94
REMARK   40  A    between atoms: _94  and  _95
REMARK   41  A    between atoms: _94  and  _97
REMARK   42  A    between atoms: _100  and  _102
REMARK   43  A    between atoms: _102  and  _103
REMARK   44  A    between atoms: _102  and  _105
REMARK   45  A    between atoms: _105  and  _106
REMARK   46  A    between atoms: _106  and  _107
REMARK   47  A    between atoms: _107  and  _108
REMARK   48  A    between atoms: _108  and  _109
REMARK   49  A    between atoms: _113  and  _115
REMARK   50  A    between atoms: _115  and  _116
REMARK   51  A    between atoms: _115  and  _118
REMARK   52  A    between atoms: _118  and  _119
REMARK   53  A    between atoms: _119  and  _120
REMARK   54  A    between atoms: _122  and  _124
REMARK   55  A    between atoms: _124  and  _125
REMARK   56  A    between atoms: _124  and  _127
REMARK   57  A    between atoms: _127  and  _128
REMARK   58  A    between atoms: _131  and  _133
REMARK   59  A    between atoms: _133  and  _134
REMARK   60  A    between atoms: _136  and  _138
REMARK   61  A    between atoms: _138  and  _139
REMARK   62  A    between atoms: _141  and  _143
REMARK   63  A    between atoms: _143  and  _144
REMARK   64  A    between atoms: _143  and  _146
REMARK   65  A    between atoms: _146  and  _147
REMARK   66  A    between atoms: _150  and  _152
REMARK   67  A    between atoms: _152  and  _153
REMARK   68  A    between atoms: _155  and  _157
REMARK   69  A    between atoms: _157  and  _158
REMARK   70  A    between atoms: _160  and  _162
REMARK   71  A    between atoms: _162  and  _163
REMARK   72  A    between atoms: _162  and  _165
REMARK   73  A    between atoms: _165  and  _166
REMARK   74  A    between atoms: _172  and  _174
REMARK   75  A    between atoms: _174  and  _175
REMARK   76  A    between atoms: _174  and  _177
REMARK   77  A    between atoms: _177  and  _178
REMARK   78  A    between atoms: _181  and  _183
REMARK   79  A    between atoms: _183  and  _184
REMARK   80  A    between atoms: _183  and  _186
REMARK   81  A    between atoms: _189  and  _191
REMARK   82  A    between atoms: _191  and  _192
REMARK   83  A    between atoms: _191  and  _194
REMARK   84  A    between atoms: _194  and  _195
REMARK   85  A    between atoms: _198  and  _200
REMARK   86  A    between atoms: _200  and  _201
REMARK   87  A    between atoms: _200  and  _203
REMARK   88  A    between atoms: _203  and  _204
REMARK   89  A    between atoms: _208  and  _209
REMARK   90  A    between atoms: _214  and  _216
REMARK   91  A    between atoms: _216  and  _217
REMARK   92  A    between atoms: _216  and  _219
REMARK   93  A    between atoms: _222  and  _224
REMARK   94  A    between atoms: _224  and  _225
REMARK   95  A    between atoms: _224  and  _227
REMARK   96  A    between atoms: _227  and  _228
REMARK   97  A    between atoms: _233  and  _235
REMARK   98  A    between atoms: _235  and  _236
REMARK   99  A    between atoms: _235  and  _238
REMARK  100  A    between atoms: _238  and  _239
REMARK  101  A    between atoms: _242  and  _244
REMARK  102  A    between atoms: _244  and  _245
REMARK  103  A    between atoms: _244  and  _247
REMARK  104  A    between atoms: _247  and  _248
REMARK  105  A    between atoms: _251  and  _253
REMARK  106  A    between atoms: _253  and  _254
REMARK  107  A    between atoms: _256  and  _258
REMARK  108  A    between atoms: _258  and  _259
REMARK  109  A    between atoms: _258  and  _261
REMARK  110  A    between atoms: _261  and  _262
REMARK  111  A    between atoms: _262  and  _263
REMARK  112  A    between atoms: _263  and  _264
REMARK  113  A    between atoms: _273  and  _275
REMARK  114  A    between atoms: _275  and  _276
REMARK  115  A    between atoms: _275  and  _278
REMARK  116  A    between atoms: _278  and  _279
REMARK  117  A    between atoms: _279  and  _280
REMARK  118  A    between atoms: _280  and  _281
REMARK  119  A    between atoms: _290  and  _292
REMARK  120  A    between atoms: _292  and  _293
REMARK  121  A    between atoms: _292  and  _295
REMARK  122  A    between atoms: _295  and  _296
REMARK  123  A    between atoms: _299  and  _301
REMARK  124  A    between atoms: _301  and  _302
REMARK  125  A    between atoms: _301  and  _304
REMARK  126  A    between atoms: _304  and  _305
REMARK  127  A    between atoms: _308  and  _310
REMARK  128  A    between atoms: _310  and  _311
REMARK  129  A    between atoms: _310  and  _313
REMARK  130  A    between atoms: _313  and  _314
REMARK  131  A    between atoms: _317  and  _319
REMARK  132  A    between atoms: _319  and  _320
REMARK  133  A    between atoms: _319  and  _322
REMARK  134  A    between atoms: _322  and  _323
REMARK  135  A    between atoms: _326  and  _328
REMARK  136  A    between atoms: _328  and  _329
REMARK  137  A    between atoms: _331  and  _333
REMARK  138  A    between atoms: _333  and  _334
REMARK  139  A    between atoms: _337  and  _339
REMARK  140  A    between atoms: _339  and  _340
REMARK  141  A    between atoms: _339  and  _342
REMARK  142  A    between atoms: _342  and  _343
REMARK  143  A    between atoms: _346  and  _348
REMARK  144  A    between atoms: _348  and  _349
REMARK  145  A    between atoms: _348  and  _351
REMARK  146  A    between atoms: _351  and  _352
REMARK  147  A    between atoms: _355  and  _357
REMARK  148  A    between atoms: _357  and  _358
REMARK  149  A    between atoms: _357  and  _360
REMARK  150  A    between atoms: _360  and  _361
REMARK  151  A    between atoms: _364  and  _366
REMARK  152  A    between atoms: _366  and  _367
REMARK  153  A    between atoms: _366  and  _369
REMARK  154  A    between atoms: _372  and  _374
REMARK  155  A    between atoms: _374  and  _375
REMARK  156  A    between atoms: _374  and  _377
REMARK  157  A    between atoms: _377  and  _378
REMARK  158  A    between atoms: _378  and  _379
REMARK  159  A    between atoms: _379  and  _380
REMARK  160  A    between atoms: _380  and  _381
REMARK  161  A    between atoms: _385  and  _387
REMARK  162  A    between atoms: _387  and  _388
REMARK  163  A    between atoms: _387  and  _390
REMARK  164  A    between atoms: _390  and  _391
REMARK  165  A    between atoms: _394  and  _396
REMARK  166  A    between atoms: _396  and  _397
REMARK  167  A    between atoms: _399  and  _401
REMARK  168  A    between atoms: _401  and  _402
REMARK  169  A    between atoms: _404  and  _406
REMARK  170  A    between atoms: _406  and  _407
REMARK  171  A    between atoms: _406  and  _409
REMARK  172  A    between atoms: _409  and  _410
REMARK  173  A    between atoms: _413  and  _415
REMARK  174  A    between atoms: _415  and  _416
REMARK  175  A    between atoms: _418  and  _420
REMARK  176  A    between atoms: _420  and  _421
REMARK  177  A    between atoms: _423  and  _425
REMARK  178  A    between atoms: _425  and  _426
REMARK  179  A    between atoms: _425  and  _428
REMARK  180  A    between atoms: _428  and  _429
REMARK  181  A    between atoms: _435  and  _437
REMARK  182  A    between atoms: _437  and  _438
REMARK  183  A    between atoms: _437  and  _440
REMARK  184  A    between atoms: _440  and  _441
REMARK  185  A    between atoms: _444  and  _446
REMARK  186  A    between atoms: _446  and  _447
REMARK  187  A    between atoms: _446  and  _449
REMARK  188  A    between atoms: _452  and  _454
REMARK  189  A    between atoms: _454  and  _455
REMARK  190  A    between atoms: _454  and  _457
REMARK  191  A    between atoms: _457  and  _458
REMARK  192  A    between atoms: _461  and  _463
REMARK  193  A    between atoms: _463  and  _464
REMARK  194  A    between atoms: _463  and  _466
REMARK  195  A    between atoms: _466  and  _467
REMARK  196  A    between atoms: _471  and  _472
REMARK  197  A    between atoms: _477  and  _479
REMARK  198  A    between atoms: _479  and  _480
REMARK  199  A    between atoms: _479  and  _482
REMARK  200  A    between atoms: _485  and  _487
REMARK  201  A    between atoms: _487  and  _488
REMARK  202  A    between atoms: _487  and  _490
REMARK  203  A    between atoms: _490  and  _491
REMARK  204  A    between atoms: _494  and  _496
REMARK  205  A    between atoms: _496  and  _497
REMARK  206  A    between atoms: _496  and  _499
REMARK  207  A    between atoms: _499  and  _500
REMARK  208  A    between atoms: _503  and  _505
REMARK  209  A    between atoms: _505  and  _506
REMARK  210  A    between atoms: _508  and  _510
REMARK  211  A    between atoms: _510  and  _511
REMARK  212  A    between atoms: _510  and  _513
REMARK  213  A    between atoms: _513  and  _514
REMARK  214  A    between atoms: _514  and  _515
REMARK  215  A    between atoms: _515  and  _516
REMARK  216  A    between atoms: _525  and  _527
REMARK  217  A    between atoms: _527  and  _528
REMARK  218  A    between atoms: _527  and  _530
REMARK  219  A    between atoms: _530  and  _531
REMARK                            x       y       z     vdW  Elec       q    Type
REMARK                         _______ _______ _______ _____ _____    ______ ____
ROOT
ATOM      1  NE  ARG A   1       3.490  -7.608  23.371  0.00  0.00    -0.265 N 
ATOM      2  HE  ARG A   1       4.528  -7.631  23.308  0.00  0.00    +0.259 HD
ATOM      3  CZ  ARG A   1       2.719  -8.025  22.332  0.00  0.00    +0.342 C 
ATOM      4  NH2 ARG A   1       1.387  -7.773  22.317  0.00  0.00    -0.292 N 
ATOM      5 HH21 ARG A   1       0.947  -7.257  23.105  0.00  0.00    +0.255 HD
ATOM      6 HH22 ARG A   1       0.806  -8.096  21.518  0.00  0.00    +0.255 HD
ATOM      7  NH1 ARG A   1       3.314  -8.717  21.334  0.00  0.00    -0.292 N 
ATOM      8 HH11 ARG A   1       4.334  -8.916  21.376  0.00  0.00    +0.255 HD
ATOM      9 HH12 ARG A   1       2.752  -9.050  20.525  0.00  0.00    +0.255 HD
ENDROOT
BRANCH   1  10
ATOM     10  CD  ARG A   1       2.824  -7.127  24.577  0.00  0.00    +0.174 C 
BRANCH  10  11
ATOM     11  CG  ARG A   1       3.654  -6.150  25.349  0.00  0.00    +0.045 C 
BRANCH  11  12
ATOM     12  CB  ARG A   1       2.735  -5.483  26.341  0.00  0.00    +0.029 C 
BRANCH  12  13
ATOM     13  CA  ARG A   1       3.360  -4.434  27.221  0.00  0.00    +0.133 C 
BRANCH  13  14
ATOM     14  N   ARG A   1       4.062  -5.100  28.311  0.00  0.00    -0.239 NA
ATOM     15  H   ARG A   1       4.132  -6.137  28.333  0.00  0.00    +0.142 HD
ENDBRANCH  13  14
BRANCH  13  16
ATOM     16  C   ARG A   1       2.241  -3.549  27.734  0.00  0.00    +0.224 C 
ATOM     17  O   ARG A   1       1.462  -3.966  28.582  0.00  0.00    -0.287 OA
ENDBRANCH  13  16
ENDBRANCH  12  13
ENDBRANCH  11  12
ENDBRANCH  10  11
ENDBRANCH   1  10
TORSDOF 6
REMARK  Name = ../refined-set-2016/1hpx/1hpx_pocket.pdb
REMARK  219 active torsions:
REMARK  status: ('A' for Active; 'I' for Inactive)
REMARK    1  A    between atoms: _1  and  _3
REMARK    2  A    between atoms: _3  and  _4
REMARK    3  A    between atoms: _3  and  _6
REMARK    4  A    between atoms: _6  and  _7
REMARK    5  A    between atoms: _7  and  _8
REMARK    6  A    between atoms: _8  and  _9
REMARK    7  A    between atoms: _18  and  _20
REMARK    8  A    between atoms: _20  and  _21
REMARK    9  A    between atoms: _20  and  _23
REMARK   10  A    between atoms: _23  and  _24
REMARK   11  A    between atoms: _27  and  _29
REMARK   12  A    between atoms: _29  and  _30
REMARK   13  A    between atoms: _29  and  _32
REMARK   14  A    between atoms: _32  and  _33
REMARK   15  A    between atoms: _36  and  _38
REMARK   16  A    between atoms: _38  and  _39
REMARK   17  A    between atoms: _38  and  _41
REMARK   18  A    between atoms: _41  and  _42
REMARK   19  A    between atoms: _45  and  _47
REMARK   20  A    between atoms: _47  and  _48
REMARK   21  A    between atoms: _47  and  _50
REMARK   22  A    between atoms: _50  and  _51
REMARK   23  A    between atoms: _54  and  _56
REMARK   24  A    between atoms: _56  and  _57
REMARK   25  A    between atoms: _59  and  _61
REMARK   26  A    between atoms: _61  and  _62
REMARK   27  A    between atoms: _65  and  _67
REMARK   28  A    between atoms: _67  and  _68
REMARK   29  A    between atoms: _67  and  _70
REMARK   30  A    between atoms: _70  and  _71
REMARK   31  A    between atoms: _74  and  _76
REMARK   32  A    between atoms: _76  and  _77
REMARK   33  A    between atoms: _76  and  _79
REMARK   34  A    between atoms: _79  and  _80
REMARK   35  A    between atoms: _83  and  _85
REMARK   36  A    between atoms: _85  and  _86
REMARK   37  A    between atoms: _85  and  _88
REMARK   38  A    between atoms: _88  and  _89
REMARK   39  A    between atoms: _92  and  _94
REMARK   40  A    between atoms: _94  and  _95
REMARK   41  A    between atoms: _94  and  _97
REMARK   42  A    between atoms: _100  and  _102
REMARK   43  A    between atoms: _102  and  _103
REMARK   44  A    between atoms: _102  and  _105
REMARK   45  A    between atoms: _105  and  _106
REMARK   46  A    between atoms: _106  and  _107
REMARK   47  A    between atoms: _107  and  _108
REMARK   48  A    between atoms: _108  and  _109
REMARK   49  A    between atoms: _113  and  _115
REMARK   50  A    between atoms: _115  and  _116
REMARK   51  A    between atoms: _115  and  _118
REMARK   52  A    between atoms: _118  and  _119
REMARK   53  A    between atoms: _119  and  _120
REMARK   54  A    between atoms: _122  and  _124
REMARK   55  A    between atoms: _124  and  _125
REMARK   56  A    between atoms: _124  and  _127
REMARK   57  A    between atoms: _127  and  _128
REMARK   58  A    between atoms: _131  and  _133
REMARK   59  A    between atoms: _133  and  _134
REMARK   60  A    between atoms: _136  and  _138
REMARK   61  A    between atoms: _138  and  _139
REMARK   62  A    between atoms: _141  and  _143
REMARK   63  A    between atoms: _143  and  _144
REMARK   64  A    between atoms: _143  and  _146
REMARK   65  A    between atoms: _146  and  _147
REMARK   66  A    between atoms: _150  and  _152
REMARK   67  A    between atoms: _152  and  _153
REMARK   68  A    between atoms: _155  and  _157
REMARK   69  A    between atoms: _157  and  _158
REMARK   70  A    between atoms: _160  and  _162
REMARK   71  A    between atoms: _162  and  _163
REMARK   72  A    between atoms: _162  and  _165
REMARK   73  A    between atoms: _165  and  _166
REMARK   74  A    between atoms: _172  and  _174
REMARK   75  A    between atoms: _174  and  _175
REMARK   76  A    between atoms: _174  and  _177
REMARK   77  A    between atoms: _177  and  _178
REMARK   78  A    between atoms: _181  and  _183
REMARK   79  A    between atoms: _183  and  _184
REMARK   80  A    between atoms: _183  and  _186
REMARK   81  A    between atoms: _189  and  _191
REMARK   82  A    between atoms: _191  and  _192
REMARK   83  A    between atoms: _191  and  _194
REMARK   84  A    between atoms: _194  and  _195
REMARK   85  A    between atoms: _198  and  _200
REMARK   86  A    between atoms: _200  and  _201
REMARK   87  A    between atoms: _200  and  _203
REMARK   88  A    between atoms: _203  and  _204
REMARK   89  A    between atoms: _208  and  _209
REMARK   90  A    between atoms: _214  and  _216
REMARK   91  A    between atoms: _216  and  _217
REMARK   92  A    between atoms: _216  and  _219
REMARK   93  A    between atoms: _222  and  _224
REMARK   94  A    between atoms: _224  and  _225
REMARK   95  A    between atoms: _224  and  _227
REMARK   96  A    between atoms: _227  and  _228
REMARK   97  A    between atoms: _233  and  _235
REMARK   98  A    between atoms: _235  and  _236
REMARK   99  A    between atoms: _235  and  _238
REMARK  100  A    between atoms: _238  and  _239
REMARK  101  A    between atoms: _242  and  _244
REMARK  102  A    between atoms: _244  and  _245
REMARK  103  A    between atoms: _244  and  _247
REMARK  104  A    between atoms: _247  and  _248
REMARK  105  A    between atoms: _251  and  _253
REMARK  106  A    between atoms: _253  and  _254
REMARK  107  A    between atoms: _256  and  _258
REMARK  108  A    between atoms: _258  and  _259
REMARK  109  A    between atoms: _258  and  _261
REMARK  110  A    between atoms: _261  and  _262
REMARK  111  A    between atoms: _262  and  _263
REMARK  112  A    between atoms: _263  and  _264
REMARK  113  A    between atoms: _273  and  _275
REMARK  114  A    between atoms: _275  and  _276
REMARK  115  A    between atoms: _275  and  _278
REMARK  116  A    between atoms: _278  and  _279
REMARK  117  A    between atoms: _279  and  _280
REMARK  118  A    between atoms: _280  and  _281
REMARK  119  A    between atoms: _290  and  _292
REMARK  120  A    between atoms: _292  and  _293
REMARK  121  A    between atoms: _292  and  _295
REMARK  122  A    between atoms: _295  and  _296
REMARK  123  A    between atoms: _299  and  _301
REMARK  124  A    between atoms: _301  and  _302
REMARK  125  A    between atoms: _301  and  _304
REMARK  126  A    between atoms: _304  and  _305
REMARK  127  A    between atoms: _308  and  _310
REMARK  128  A    between atoms: _310  and  _311
REMARK  129  A    between atoms: _310  and  _313
REMARK  130  A    between atoms: _313  and  _314
REMARK  131  A    between atoms: _317  and  _319
REMARK  132  A    between atoms: _319  and  _320
REMARK  133  A    between atoms: _319  and  _322
REMARK  134  A    between atoms: _322  and  _323
REMARK  135  A    between atoms: _326  and  _328
REMARK  136  A    between atoms: _328  and  _329
REMARK  137  A    between atoms: _331  and  _333
REMARK  138  A    between atoms: _333  and  _334
REMARK  139  A    between atoms: _337  and  _339
REMARK  140  A    between atoms: _339  and  _340
REMARK  141  A    between atoms: _339  and  _342
REMARK  142  A    between atoms: _342  and  _343
REMARK  143  A    between atoms: _346  and  _348
REMARK  144  A    between atoms: _348  and  _349
REMARK  145  A    between atoms: _348  and  _351
REMARK  146  A    between atoms: _351  and  _352
REMARK  147  A    between atoms: _355  and  _357
REMARK  148  A    between atoms: _357  and  _358
REMARK  149  A    between atoms: _357  and  _360
REMARK  150  A    between atoms: _360  and  _361
REMARK  151  A    between atoms: _364  and  _366
REMARK  152  A    between atoms: _366  and  _367
REMARK  153  A    between atoms: _366  and  _369
REMARK  154  A    between atoms: _372  and  _374
REMARK  155  A    between atoms: _374  and  _375
REMARK  156  A    between atoms: _374  and  _377
REMARK  157  A    between atoms: _377  and  _378
REMARK  158  A    between atoms: _378  and  _379
REMARK  159  A    between atoms: _379  and  _380
REMARK  160  A    between atoms: _380  and  _381
REMARK  161  A    between atoms: _385  and  _387
REMARK  162  A    between atoms: _387  and  _388
REMARK  163  A    between atoms: _387  and  _390
REMARK  164  A    between atoms: _390  and  _391
REMARK  165  A    between atoms: _394  and  _396
REMARK  166  A    between atoms: _396  and  _397
REMARK  167  A    between atoms: _399  and  _401
REMARK  168  A    between atoms: _401  and  _402
REMARK  169  A    between atoms: _404  and  _406
REMARK  170  A    between atoms: _406  and  _407
REMARK  171  A    between atoms: _406  and  _409
REMARK  172  A    between atoms: _409  and  _410
REMARK  173  A    between atoms: _413  and  _415
REMARK  174  A    between atoms: _415  and  _416
REMARK  175  A    between atoms: _418  and  _420
REMARK  176  A    between atoms: _420  and  _421
REMARK  177  A    between atoms: _423  and  _425
REMARK  178  A    between atoms: _425  and  _426
REMARK  179  A    between atoms: _425  and  _428
REMARK  180  A    between atoms: _428  and  _429
REMARK  181  A    between atoms: _435  and  _437
REMARK  182  A    between atoms: _437  and  _438
REMARK  183  A    between atoms: _437  and  _440
REMARK  184  A    between atoms: _440  and  _441
REMARK  185  A    between atoms: _444  and  _446
REMARK  186  A    between atoms: _446  and  _447
REMARK  187  A    between atoms: _446  and  _449
REMARK  188  A    between atoms: _452  and  _454
REMARK  189  A    between atoms: _454  and  _455
REMARK  190  A    between atoms: _454  and  _457
REMARK  191  A    between atoms: _457  and  _458
REMARK  192  A    between atoms: _461  and  _463
REMARK  193  A    between atoms: _463  and  _464
REMARK  194  A    between atoms: _463  and  _466
REMARK  195  A    between atoms: _466  and  _467
REMARK  196  A    between atoms: _471  and  _472
REMARK  197  A    between atoms: _477  and  _479
REMARK  198  A    between atoms: _479  and  _480
REMARK  199  A    between atoms: _479  and  _482
REMARK  200  A    between atoms: _485  and  _487
REMARK  201  A    between atoms: _487  and  _488
REMARK  202  A    between atoms: _487  and  _490
REMARK  203  A    between atoms: _490  and  _491
REMARK  204  A    between atoms: _494  and  _496
REMARK  205  A    between atoms: _496  and  _497
REMARK  206  A    between atoms: _496  and  _499
REMARK  207  A    between atoms: _499  and  _500
REMARK  208  A    between atoms: _503  and  _505
REMARK  209  A    between atoms: _505  and  _506
REMARK  210  A    between atoms: _508  and  _510
REMARK  211  A    between atoms: _510  and  _511
REMARK  212  A    between atoms: _510  and  _513
REMARK  213  A    between atoms: _513  and  _514
REMARK  214  A    between atoms: _514  and  _515
REMARK  215  A    between atoms: _515  and  _516
REMARK  216  A    between atoms: _525  and  _527
REMARK  217  A    between atoms: _527  and  _528
REMARK  218  A    between atoms: _527  and  _530
REMARK  219  A    between atoms: _530  and  _531
REMARK                            x       y       z     vdW  Elec       q    Type
REMARK                         _______ _______ _______ _____ _____    ______ ____
ROOT
ATOM      1  C   GLY A   5       4.534   3.942  15.961  0.00  0.00    +0.243 C 
ATOM      2  N   ALA A   6       3.252   3.966  16.290  0.00  0.00    -0.297 N 
ATOM      3  H   ALA A   6       2.968   4.018  17.289  0.00  0.00    +0.150 HD
ATOM      4  O   GLY A   5       4.927   3.830  14.814  0.00  0.00    -0.273 OA
ENDROOT
BRANCH   2   5
ATOM      5  CA  ALA A   6       2.243   3.919  15.241  0.00  0.00    +0.149 C 
ATOM      6  CB  ALA A   6       1.140   2.934  15.591  0.00  0.00    +0.031 C 
BRANCH   5   7
ATOM      7  C   ALA A   6       1.594   5.270  15.027  0.00  0.00    +0.241 C 
ATOM      8  O   ALA A   6       1.061   5.874  15.956  0.00  0.00    -0.273 OA
ATOM      9  N   ASP A   7       1.635   5.717  13.770  0.00  0.00    -0.297 N 
ATOM     10  H   ASP A   7       2.204   5.212  13.061  0.00  0.00    +0.150 HD
BRANCH   9  11
ATOM     11  CA  ASP A   7       0.880   6.920  13.379  0.00  0.00    +0.160 C 
BRANCH  11  12
ATOM     12  C   ASP A   7      -0.616   6.802  13.500  0.00  0.00    +0.241 C 
ATOM     13  O   ASP A   7      -1.263   7.764  13.876  0.00  0.00    -0.273 OA
ATOM     14  N   ASP A   8      -1.127   5.629  13.142  0.00  0.00    -0.297 N 
ATOM     15  H   ASP A   8      -0.466   4.863  12.903  0.00  0.00    +0.150 HD
BRANCH  14  16
ATOM     16  CA  ASP A   8      -2.553   5.347  13.062  0.00  0.00    +0.160 C 
BRANCH  16  17
ATOM     17  C   ASP A   8      -2.908   4.146  13.923  0.00  0.00    +0.241 C 
ATOM     18  O   ASP A   8      -2.041   3.436  14.399  0.00  0.00    -0.273 OA
ATOM     19  N   THR A   9      -4.202   3.963  14.110  0.00  0.00    -0.295 N 
ATOM     20  H   THR A   9      -4.839   4.632  13.631  0.00  0.00    +0.150 HD
BRANCH  19  21
ATOM     21  CA  THR A   9      -4.841   2.917  14.921  0.00  0.00    +0.176 C 
BRANCH  21  22
ATOM     22  C   THR A   9      -5.417   1.801  14.047  0.00  0.00    +0.243 C 
ATOM     23  N   VAL A  10      -4.893   0.594  14.284  0.00  0.00    -0.298 N 
ATOM     24  H   VAL A  10      -4.179   0.496  15.034  0.00  0.00    +0.150 HD
ATOM     25  O   THR A   9      -6.279   2.028  13.198  0.00  0.00    -0.273 OA
BRANCH  23  26
ATOM     26  CA  VAL A  10      -5.288  -0.594  13.525  0.00  0.00    +0.137 C 
BRANCH  26  27
ATOM     27  CB  VAL A  10      -4.094  -1.257  12.820  0.00  0.00    +0.026 C 
ATOM     28  CG2 VAL A  10      -3.087  -0.252  12.343  0.00  0.00    +0.002 C 
ATOM     29  CG1 VAL A  10      -4.647  -2.060  11.636  0.00  0.00    +0.002 C 
ENDBRANCH  26  27
BRANCH  26  30
ATOM     30  C   VAL A  10      -5.861  -1.630  14.441  0.00  0.00    +0.227 C 
ATOM     31  O   VAL A  10      -5.186  -2.030  15.372  0.00  0.00    -0.286 OA
ENDBRANCH  26  30
ENDBRANCH  23  26
ENDBRANCH  21  22
BRANCH  21  32
ATOM     32  CB  THR A   9      -5.976   3.618  15.718  0.00  0.00    +0.137 C 
ATOM     33  CG2 THR A   9      -6.864   2.680  16.516  0.00  0.00    +0.034 C 
BRANCH  32  34
ATOM     34  OG1 THR A   9      -5.394   4.608  16.579  0.00  0.00    -0.382 OA
ATOM     35  HG1 THR A   9      -4.907   5.274  16.032  0.00  0.00    +0.210 HD
ENDBRANCH  32  34
ENDBRANCH  21  32
ENDBRANCH  19  21
ENDBRANCH  16  17
BRANCH  16  36
ATOM     36  CB  ASP A   8      -2.922   4.991  11.618  0.00  0.00    +0.143 C 
BRANCH  36  37
ATOM     37  CG  ASP A   8      -2.712   6.142  10.642  0.00  0.00    +0.367 C 
ATOM     38  OD2 ASP A   8      -3.362   7.187  10.800  0.00  0.00    -0.246 OA
ATOM     39  OD1 ASP A   8      -1.899   5.970   9.730  0.00  0.00    -0.246 OA
ENDBRANCH  36  37
ENDBRANCH  16  36
ENDBRANCH  14  16
ENDBRANCH  11  12
BRANCH  11  40
ATOM     40  CB  ASP A   7       1.115   7.339  11.932  0.00  0.00    +0.143 C 
BRANCH  40  41
ATOM     41  CG  ASP A   7       2.563   7.569  11.593  0.00  0.00    +0.367 C 
ATOM     42  OD2 ASP A   7       3.406   7.687  12.482  0.00  0.00    -0.246 OA
ATOM     43  OD1 ASP A   7       2.861   7.619  10.412  0.00  0.00    -0.246 OA
ENDBRANCH  40  41
ENDBRANCH  11  40
ENDBRANCH   9  11
ENDBRANCH   5   7
ENDBRANCH   2   5
BRANCH   1  44
ATOM     44  CA  GLY A   5       5.525   4.051  17.090  0.00  0.00    +0.176 C 
BRANCH  44  46
ATOM     45  C   THR A   4       4.600   5.400  18.850  0.00  0.00    +0.243 C 
ATOM     46  N   GLY A   5       4.858   4.183  18.374  0.00  0.00    -0.295 N 
ATOM     47  H   GLY A   5       4.585   3.338  18.915  0.00  0.00    +0.150 HD
ATOM     48  O   THR A   4       4.963   6.390  18.244  0.00  0.00    -0.273 OA
BRANCH  45  49
ATOM     49  CA  THR A   4       3.819   5.519  20.159  0.00  0.00    +0.176 C 
BRANCH  49  51
ATOM     50  C   ASP A   3       2.243   3.692  20.041  0.00  0.00    +0.241 C 
ATOM     51  N   THR A   4       3.242   4.286  20.689  0.00  0.00    -0.295 N 
ATOM     52  H   THR A   4       3.611   3.874  21.570  0.00  0.00    +0.150 HD
ATOM     53  O   ASP A   3       1.783   4.131  18.999  0.00  0.00    -0.273 OA
BRANCH  50  54
ATOM     54  CA  ASP A   3       1.755   2.365  20.604  0.00  0.00    +0.160 C 
BRANCH  54  57
ATOM     55  C   LEU A   2       0.556   2.080  22.668  0.00  0.00    +0.241 C 
ATOM     56  O   LEU A   2       1.562   1.744  23.271  0.00  0.00    -0.273 OA
ATOM     57  N   ASP A   3       0.560   2.550  21.430  0.00  0.00    -0.297 N 
ATOM     58  H   ASP A   3      -0.273   3.043  21.050  0.00  0.00    +0.150 HD
BRANCH  55  59
ATOM     59  CA  LEU A   2      -0.766   1.921  23.327  0.00  0.00    +0.149 C 
BRANCH  59  61
ATOM     60  C   LEU A   1      -1.534  -0.258  22.636  0.00  0.00    +0.238 C 
ATOM     61  N   LEU A   2      -1.023   0.507  23.606  0.00  0.00    -0.297 N 
ATOM     62  H   LEU A   2      -0.812   0.105  24.542  0.00  0.00    +0.150 HD
ATOM     63  O   LEU A   1      -1.916   0.195  21.558  0.00  0.00    -0.274 OA
BRANCH  60  64
ATOM     64  CA  LEU A   1      -1.647  -1.748  22.924  0.00  0.00    +0.145 C 
BRANCH  64  65
ATOM     65  N   LEU A   1      -2.952  -2.209  22.490  0.00  0.00    -0.238 NA
ATOM     66  H   LEU A   1      -3.104  -2.426  21.484  0.00  0.00    +0.142 HD
ENDBRANCH  64  65
BRANCH  64  67
ATOM     67  CB  LEU A   1      -0.697  -2.554  22.075  0.00  0.00    +0.026 C 
BRANCH  67  68
ATOM     68  CG  LEU A   1       0.755  -2.645  22.405  0.00  0.00    +0.002 C 
ATOM     69  CD2 LEU A   1       0.869  -3.130  23.822  0.00  0.00    +0.000 C 
ATOM     70  CD1 LEU A   1       1.387  -3.724  21.545  0.00  0.00    +0.000 C 
ENDBRANCH  67  68
ENDBRANCH  64  67
ENDBRANCH  60  64
ENDBRANCH  59  61
BRANCH  59  71
ATOM     71  CB  LEU A   2      -0.747   2.688  24.615  0.00  0.00    +0.029 C 
BRANCH  71  72
ATOM     72  CG  LEU A   2      -1.990   2.606  25.468  0.00  0.00    +0.002 C 
ATOM     73  CD2 LEU A   2      -1.770   3.389  26.751  0.00  0.00    +0.000 C 
ATOM     74  CD1 LEU A   2      -3.200   3.165  24.753  0.00  0.00    +0.000 C 
ENDBRANCH  71  72
ENDBRANCH  59  71
ENDBRANCH  55  59
ENDBRANCH  54  57
BRANCH  54  75
ATOM     75  CB  ASP A   3       1.401   1.367  19.449  0.00  0.00    +0.143 C 
BRANCH  75  76
ATOM     76  CG  ASP A   3       2.569   0.985  18.529  0.00  0.00    +0.367 C 
ATOM     77  OD2 ASP A   3       3.590   1.636  18.549  0.00  0.00    -0.246 OA
ATOM     78  OD1 ASP A   3       2.469   0.008  17.794  0.00  0.00    -0.246 OA
ENDBRANCH  75  76
ENDBRANCH  54  75
ENDBRANCH  50  54
ENDBRANCH  49  51
BRANCH  49  79
ATOM     79  CB  THR A   4       4.651   6.177  21.274  0.00  0.00    +0.137 C 
ATOM     80  CG2 THR A   4       3.799   6.360  22.513  0.00  0.00    +0.034 C 
BRANCH  79  81
ATOM     81  OG1 THR A   4       5.792   5.378  21.584  0.00  0.00    -0.382 OA
ATOM     82  HG1 THR A   4       6.355   5.282  20.776  0.00  0.00    +0.210 HD
ENDBRANCH  79  81
ENDBRANCH  49  79
ENDBRANCH  45  49
ENDBRANCH  44  46
ENDBRANCH   1  44
TORSDOF 35
REMARK  Name = ../refined-set-2016/1hpx/1hpx_pocket.pdb
REMARK  219 active torsions:
REMARK  status: ('A' for Active; 'I' for Inactive)
REMARK    1  A    between atoms: _1  and  _3
REMARK    2  A    between atoms: _3  and  _4
REMARK    3  A    between atoms: _3  and  _6
REMARK    4  A    between atoms: _6  and  _7
REMARK    5  A    between atoms: _7  and  _8
REMARK    6  A    between atoms: _8  and  _9
REMARK    7  A    between atoms: _18  and  _20
REMARK    8  A    between atoms: _20  and  _21
REMARK    9  A    between atoms: _20  and  _23
REMARK   10  A    between atoms: _23  and  _24
REMARK   11  A    between atoms: _27  and  _29
REMARK   12  A    between atoms: _29  and  _30
REMARK   13  A    between atoms: _29  and  _32
REMARK   14  A    between atoms: _32  and  _33
REMARK   15  A    between atoms: _36  and  _38
REMARK   16  A    between atoms: _38  and  _39
REMARK   17  A    between atoms: _38  and  _41
REMARK   18  A    between atoms: _41  and  _42
REMARK   19  A    between atoms: _45  and  _47
REMARK   20  A    between atoms: _47  and  _48
REMARK   21  A    between atoms: _47  and  _50
REMARK   22  A    between atoms: _50  and  _51
REMARK   23  A    between atoms: _54  and  _56
REMARK   24  A    between atoms: _56  and  _57
REMARK   25  A    between atoms: _59  and  _61
REMARK   26  A    between atoms: _61  and  _62
REMARK   27  A    between atoms: _65  and  _67
REMARK   28  A    between atoms: _67  and  _68
REMARK   29  A    between atoms: _67  and  _70
REMARK   30  A    between atoms: _70  and  _71
REMARK   31  A    between atoms: _74  and  _76
REMARK   32  A    between atoms: _76  and  _77
REMARK   33  A    between atoms: _76  and  _79
REMARK   34  A    between atoms: _79  and  _80
REMARK   35  A    between atoms: _83  and  _85
REMARK   36  A    between atoms: _85  and  _86
REMARK   37  A    between atoms: _85  and  _88
REMARK   38  A    between atoms: _88  and  _89
REMARK   39  A    between atoms: _92  and  _94
REMARK   40  A    between atoms: _94  and  _95
REMARK   41  A    between atoms: _94  and  _97
REMARK   42  A    between atoms: _100  and  _102
REMARK   43  A    between atoms: _102  and  _103
REMARK   44  A    between atoms: _102  and  _105
REMARK   45  A    between atoms: _105  and  _106
REMARK   46  A    between atoms: _106  and  _107
REMARK   47  A    between atoms: _107  and  _108
REMARK   48  A    between atoms: _108  and  _109
REMARK   49  A    between atoms: _113  and  _115
REMARK   50  A    between atoms: _115  and  _116
REMARK   51  A    between atoms: _115  and  _118
REMARK   52  A    between atoms: _118  and  _119
REMARK   53  A    between atoms: _119  and  _120
REMARK   54  A    between atoms: _122  and  _124
REMARK   55  A    between atoms: _124  and  _125
REMARK   56  A    between atoms: _124  and  _127
REMARK   57  A    between atoms: _127  and  _128
REMARK   58  A    between atoms: _131  and  _133
REMARK   59  A    between atoms: _133  and  _134
REMARK   60  A    between atoms: _136  and  _138
REMARK   61  A    between atoms: _138  and  _139
REMARK   62  A    between atoms: _141  and  _143
REMARK   63  A    between atoms: _143  and  _144
REMARK   64  A    between atoms: _143  and  _146
REMARK   65  A    between atoms: _146  and  _147
REMARK   66  A    between atoms: _150  and  _152
REMARK   67  A    between atoms: _152  and  _153
REMARK   68  A    between atoms: _155  and  _157
REMARK   69  A    between atoms: _157  and  _158
REMARK   70  A    between atoms: _160  and  _162
REMARK   71  A    between atoms: _162  and  _163
REMARK   72  A    between atoms: _162  and  _165
REMARK   73  A    between atoms: _165  and  _166
REMARK   74  A    between atoms: _172  and  _174
REMARK   75  A    between atoms: _174  and  _175
REMARK   76  A    between atoms: _174  and  _177
REMARK   77  A    between atoms: _177  and  _178
REMARK   78  A    between atoms: _181  and  _183
REMARK   79  A    between atoms: _183  and  _184
REMARK   80  A    between atoms: _183  and  _186
REMARK   81  A    between atoms: _189  and  _191
REMARK   82  A    between atoms: _191  and  _192
REMARK   83  A    between atoms: _191  and  _194
REMARK   84  A    between atoms: _194  and  _195
REMARK   85  A    between atoms: _198  and  _200
REMARK   86  A    between atoms: _200  and  _201
REMARK   87  A    between atoms: _200  and  _203
REMARK   88  A    between atoms: _203  and  _204
REMARK   89  A    between atoms: _208  and  _209
REMARK   90  A    between atoms: _214  and  _216
REMARK   91  A    between atoms: _216  and  _217
REMARK   92  A    between atoms: _216  and  _219
REMARK   93  A    between atoms: _222  and  _224
REMARK   94  A    between atoms: _224  and  _225
REMARK   95  A    between atoms: _224  and  _227
REMARK   96  A    between atoms: _227  and  _228
REMARK   97  A    between atoms: _233  and  _235
REMARK   98  A    between atoms: _235  and  _236
REMARK   99  A    between atoms: _235  and  _238
REMARK  100  A    between atoms: _238  and  _239
REMARK  101  A    between atoms: _242  and  _244
REMARK  102  A    between atoms: _244  and  _245
REMARK  103  A    between atoms: _244  and  _247
REMARK  104  A    between atoms: _247  and  _248
REMARK  105  A    between atoms: _251  and  _253
REMARK  106  A    between atoms: _253  and  _254
REMARK  107  A    between atoms: _256  and  _258
REMARK  108  A    between atoms: _258  and  _259
REMARK  109  A    between atoms: _258  and  _261
REMARK  110  A    between atoms: _261  and  _262
REMARK  111  A    between atoms: _262  and  _263
REMARK  112  A    between atoms: _263  and  _264
REMARK  113  A    between atoms: _273  and  _275
REMARK  114  A    between atoms: _275  and  _276
REMARK  115  A    between atoms: _275  and  _278
REMARK  116  A    between atoms: _278  and  _279
REMARK  117  A    between atoms: _279  and  _280
REMARK  118  A    between atoms: _280  and  _281
REMARK  119  A    between atoms: _290  and  _292
REMARK  120  A    between atoms: _292  and  _293
REMARK  121  A    between atoms: _292  and  _295
REMARK  122  A    between atoms: _295  and  _296
REMARK  123  A    between atoms: _299  and  _301
REMARK  124  A    between atoms: _301  and  _302
REMARK  125  A    between atoms: _301  and  _304
REMARK  126  A    between atoms: _304  and  _305
REMARK  127  A    between atoms: _308  and  _310
REMARK  128  A    between atoms: _310  and  _311
REMARK  129  A    between atoms: _310  and  _313
REMARK  130  A    between atoms: _313  and  _314
REMARK  131  A    between atoms: _317  and  _319
REMARK  132  A    between atoms: _319  and  _320
REMARK  133  A    between atoms: _319  and  _322
REMARK  134  A    between atoms: _322  and  _323
REMARK  135  A    between atoms: _326  and  _328
REMARK  136  A    between atoms: _328  and  _329
REMARK  137  A    between atoms: _331  and  _333
REMARK  138  A    between atoms: _333  and  _334
REMARK  139  A    between atoms: _337  and  _339
REMARK  140  A    between atoms: _339  and  _340
REMARK  141  A    between atoms: _339  and  _342
REMARK  142  A    between atoms: _342  and  _343
REMARK  143  A    between atoms: _346  and  _348
REMARK  144  A    between atoms: _348  and  _349
REMARK  145  A    between atoms: _348  and  _351
REMARK  146  A    between atoms: _351  and  _352
REMARK  147  A    between atoms: _355  and  _357
REMARK  148  A    between atoms: _357  and  _358
REMARK  149  A    between atoms: _357  and  _360
REMARK  150  A    between atoms: _360  and  _361
REMARK  151  A    between atoms: _364  and  _366
REMARK  152  A    between atoms: _366  and  _367
REMARK  153  A    between atoms: _366  and  _369
REMARK  154  A    between atoms: _372  and  _374
REMARK  155  A    between atoms: _374  and  _375
REMARK  156  A    between atoms: _374  and  _377
REMARK  157  A    between atoms: _377  and  _378
REMARK  158  A    between atoms: _378  and  _379
REMARK  159  A    between atoms: _379  and  _380
REMARK  160  A    between atoms: _380  and  _381
REMARK  161  A    between atoms: _385  and  _387
REMARK  162  A    between atoms: _387  and  _388
REMARK  163  A    between atoms: _387  and  _390
REMARK  164  A    between atoms: _390  and  _391
REMARK  165  A    between atoms: _394  and  _396
REMARK  166  A    between atoms: _396  and  _397
REMARK  167  A    between atoms: _399  and  _401
REMARK  168  A    between atoms: _401  and  _402
REMARK  169  A    between atoms: _404  and  _406
REMARK  170  A    between atoms: _406  and  _407
REMARK  171  A    between atoms: _406  and  _409
REMARK  172  A    between atoms: _409  and  _410
REMARK  173  A    between atoms: _413  and  _415
REMARK  174  A    between atoms: _415  and  _416
REMARK  175  A    between atoms: _418  and  _420
REMARK  176  A    between atoms: _420  and  _421
REMARK  177  A    between atoms: _423  and  _425
REMARK  178  A    between atoms: _425  and  _426
REMARK  179  A    between atoms: _425  and  _428
REMARK  180  A    between atoms: _428  and  _429
REMARK  181  A    between atoms: _435  and  _437
REMARK  182  A    between atoms: _437  and  _438
REMARK  183  A    between atoms: _437  and  _440
REMARK  184  A    between atoms: _440  and  _441
REMARK  185  A    between atoms: _444  and  _446
REMARK  186  A    between atoms: _446  and  _447
REMARK  187  A    between atoms: _446  and  _449
REMARK  188  A    between atoms: _452  and  _454
REMARK  189  A    between atoms: _454  and  _455
REMARK  190  A    between atoms: _454  and  _457
REMARK  191  A    between atoms: _457  and  _458
REMARK  192  A    between atoms: _461  and  _463
REMARK  193  A    between atoms: _463  and  _464
REMARK  194  A    between atoms: _463  and  _466
REMARK  195  A    between atoms: _466  and  _467
REMARK  196  A    between atoms: _471  and  _472
REMARK  197  A    between atoms: _477  and  _479
REMARK  198  A    between atoms: _479  and  _480
REMARK  199  A    between atoms: _479  and  _482
REMARK  200  A    between atoms: _485  and  _487
REMARK  201  A    between atoms: _487  and  _488
REMARK  202  A    between atoms: _487  and  _490
REMARK  203  A    between atoms: _490  and  _491
REMARK  204  A    between atoms: _494  and  _496
REMARK  205  A    between atoms: _496  and  _497
REMARK  206  A    between atoms: _496  and  _499
REMARK  207  A    between atoms: _499  and  _500
REMARK  208  A    between atoms: _503  and  _505
REMARK  209  A    between atoms: _505  and  _506
REMARK  210  A    between atoms: _508  and  _510
REMARK  211  A    between atoms: _510  and  _511
REMARK  212  A    between atoms: _510  and  _513
REMARK  213  A    between atoms: _513  and  _514
REMARK  214  A    between atoms: _514  and  _515
REMARK  215  A    between atoms: _515  and  _516
REMARK  216  A    between atoms: _525  and  _527
REMARK  217  A    between atoms: _527  and  _528
REMARK  218  A    between atoms: _527  and  _530
REMARK  219  A    between atoms: _530  and  _531
REMARK                            x       y       z     vdW  Elec       q    Type
REMARK                         _______ _______ _______ _____ _____    ______ ____
ROOT
ATOM      1  CG  LYS A   1      -5.231   3.657   3.985  0.00  0.00    -0.000 C 
ENDROOT
BRANCH   1   2
ATOM      2  CB  LYS A   1      -6.372   2.698   3.722  0.00  0.00    +0.025 C 
BRANCH   2   3
ATOM      3  CA  LYS A   1      -6.211   1.907   2.440  0.00  0.00    +0.133 C 
BRANCH   3   4
ATOM      4  N   LYS A   1      -7.423   1.111   2.263  0.00  0.00    -0.239 NA
ATOM      5  H   LYS A   1      -7.558   0.235   2.807  0.00  0.00    +0.142 HD
ENDBRANCH   3   4
BRANCH   3   6
ATOM      6  C   LYS A   1      -5.055   0.963   2.588  0.00  0.00    +0.224 C 
ATOM      7  O   LYS A   1      -5.289  -0.189   2.895  0.00  0.00    -0.287 OA
ENDBRANCH   3   6
ENDBRANCH   2   3
ENDBRANCH   1   2
BRANCH   1   8
ATOM      8  CD  LYS A   1      -5.158   4.023   5.452  0.00  0.00    -0.024 C 
BRANCH   8   9
ATOM      9  CE  LYS A   1      -3.844   4.685   5.856  0.00  0.00    -0.086 C 
BRANCH   9  10
ATOM     10  NZ  LYS A   1      -3.658   5.989   5.202  0.00  0.00    +0.380 N 
ATOM     11  HZ1 LYS A   1      -2.753   6.402   5.506  0.00  0.00    -0.089 HD
ATOM     12  HZ2 LYS A   1      -4.437   6.624   5.469  0.00  0.00    -0.089 HD
ATOM     13  HZ3 LYS A   1      -3.653   5.860   4.170  0.00  0.00    -0.089 HD
ENDBRANCH   9  10
ENDBRANCH   8   9
ENDBRANCH   1   8
TORSDOF 7
REMARK  Name = ../refined-set-2016/1hpx/1hpx_pocket.pdb
REMARK  219 active torsions:
REMARK  status: ('A' for Active; 'I' for Inactive)
REMARK    1  A    between atoms: _1  and  _3
REMARK    2  A    between atoms: _3  and  _4
REMARK    3  A    between atoms: _3  and  _6
REMARK    4  A    between atoms: _6  and  _7
REMARK    5  A    between atoms: _7  and  _8
REMARK    6  A    between atoms: _8  and  _9
REMARK    7  A    between atoms: _18  and  _20
REMARK    8  A    between atoms: _20  and  _21
REMARK    9  A    between atoms: _20  and  _23
REMARK   10  A    between atoms: _23  and  _24
REMARK   11  A    between atoms: _27  and  _29
REMARK   12  A    between atoms: _29  and  _30
REMARK   13  A    between atoms: _29  and  _32
REMARK   14  A    between atoms: _32  and  _33
REMARK   15  A    between atoms: _36  and  _38
REMARK   16  A    between atoms: _38  and  _39
REMARK   17  A    between atoms: _38  and  _41
REMARK   18  A    between atoms: _41  and  _42
REMARK   19  A    between atoms: _45  and  _47
REMARK   20  A    between atoms: _47  and  _48
REMARK   21  A    between atoms: _47  and  _50
REMARK   22  A    between atoms: _50  and  _51
REMARK   23  A    between atoms: _54  and  _56
REMARK   24  A    between atoms: _56  and  _57
REMARK   25  A    between atoms: _59  and  _61
REMARK   26  A    between atoms: _61  and  _62
REMARK   27  A    between atoms: _65  and  _67
REMARK   28  A    between atoms: _67  and  _68
REMARK   29  A    between atoms: _67  and  _70
REMARK   30  A    between atoms: _70  and  _71
REMARK   31  A    between atoms: _74  and  _76
REMARK   32  A    between atoms: _76  and  _77
REMARK   33  A    between atoms: _76  and  _79
REMARK   34  A    between atoms: _79  and  _80
REMARK   35  A    between atoms: _83  and  _85
REMARK   36  A    between atoms: _85  and  _86
REMARK   37  A    between atoms: _85  and  _88
REMARK   38  A    between atoms: _88  and  _89
REMARK   39  A    between atoms: _92  and  _94
REMARK   40  A    between atoms: _94  and  _95
REMARK   41  A    between atoms: _94  and  _97
REMARK   42  A    between atoms: _100  and  _102
REMARK   43  A    between atoms: _102  and  _103
REMARK   44  A    between atoms: _102  and  _105
REMARK   45  A    between atoms: _105  and  _106
REMARK   46  A    between atoms: _106  and  _107
REMARK   47  A    between atoms: _107  and  _108
REMARK   48  A    between atoms: _108  and  _109
REMARK   49  A    between atoms: _113  and  _115
REMARK   50  A    between atoms: _115  and  _116
REMARK   51  A    between atoms: _115  and  _118
REMARK   52  A    between atoms: _118  and  _119
REMARK   53  A    between atoms: _119  and  _120
REMARK   54  A    between atoms: _122  and  _124
REMARK   55  A    between atoms: _124  and  _125
REMARK   56  A    between atoms: _124  and  _127
REMARK   57  A    between atoms: _127  and  _128
REMARK   58  A    between atoms: _131  and  _133
REMARK   59  A    between atoms: _133  and  _134
REMARK   60  A    between atoms: _136  and  _138
REMARK   61  A    between atoms: _138  and  _139
REMARK   62  A    between atoms: _141  and  _143
REMARK   63  A    between atoms: _143  and  _144
REMARK   64  A    between atoms: _143  and  _146
REMARK   65  A    between atoms: _146  and  _147
REMARK   66  A    between atoms: _150  and  _152
REMARK   67  A    between atoms: _152  and  _153
REMARK   68  A    between atoms: _155  and  _157
REMARK   69  A    between atoms: _157  and  _158
REMARK   70  A    between atoms: _160  and  _162
REMARK   71  A    between atoms: _162  and  _163
REMARK   72  A    between atoms: _162  and  _165
REMARK   73  A    between atoms: _165  and  _166
REMARK   74  A    between atoms: _172  and  _174
REMARK   75  A    between atoms: _174  and  _175
REMARK   76  A    between atoms: _174  and  _177
REMARK   77  A    between atoms: _177  and  _178
REMARK   78  A    between atoms: _181  and  _183
REMARK   79  A    between atoms: _183  and  _184
REMARK   80  A    between atoms: _183  and  _186
REMARK   81  A    between atoms: _189  and  _191
REMARK   82  A    between atoms: _191  and  _192
REMARK   83  A    between atoms: _191  and  _194
REMARK   84  A    between atoms: _194  and  _195
REMARK   85  A    between atoms: _198  and  _200
REMARK   86  A    between atoms: _200  and  _201
REMARK   87  A    between atoms: _200  and  _203
REMARK   88  A    between atoms: _203  and  _204
REMARK   89  A    between atoms: _208  and  _209
REMARK   90  A    between atoms: _214  and  _216
REMARK   91  A    between atoms: _216  and  _217
REMARK   92  A    between atoms: _216  and  _219
REMARK   93  A    between atoms: _222  and  _224
REMARK   94  A    between atoms: _224  and  _225
REMARK   95  A    between atoms: _224  and  _227
REMARK   96  A    between atoms: _227  and  _228
REMARK   97  A    between atoms: _233  and  _235
REMARK   98  A    between atoms: _235  and  _236
REMARK   99  A    between atoms: _235  and  _238
REMARK  100  A    between atoms: _238  and  _239
REMARK  101  A    between atoms: _242  and  _244
REMARK  102  A    between atoms: _244  and  _245
REMARK  103  A    between atoms: _244  and  _247
REMARK  104  A    between atoms: _247  and  _248
REMARK  105  A    between atoms: _251  and  _253
REMARK  106  A    between atoms: _253  and  _254
REMARK  107  A    between atoms: _256  and  _258
REMARK  108  A    between atoms: _258  and  _259
REMARK  109  A    between atoms: _258  and  _261
REMARK  110  A    between atoms: _261  and  _262
REMARK  111  A    between atoms: _262  and  _263
REMARK  112  A    between atoms: _263  and  _264
REMARK  113  A    between atoms: _273  and  _275
REMARK  114  A    between atoms: _275  and  _276
REMARK  115  A    between atoms: _275  and  _278
REMARK  116  A    between atoms: _278  and  _279
REMARK  117  A    between atoms: _279  and  _280
REMARK  118  A    between atoms: _280  and  _281
REMARK  119  A    between atoms: _290  and  _292
REMARK  120  A    between atoms: _292  and  _293
REMARK  121  A    between atoms: _292  and  _295
REMARK  122  A    between atoms: _295  and  _296
REMARK  123  A    between atoms: _299  and  _301
REMARK  124  A    between atoms: _301  and  _302
REMARK  125  A    between atoms: _301  and  _304
REMARK  126  A    between atoms: _304  and  _305
REMARK  127  A    between atoms: _308  and  _310
REMARK  128  A    between atoms: _310  and  _311
REMARK  129  A    between atoms: _310  and  _313
REMARK  130  A    between atoms: _313  and  _314
REMARK  131  A    between atoms: _317  and  _319
REMARK  132  A    between atoms: _319  and  _320
REMARK  133  A    between atoms: _319  and  _322
REMARK  134  A    between atoms: _322  and  _323
REMARK  135  A    between atoms: _326  and  _328
REMARK  136  A    between atoms: _328  and  _329
REMARK  137  A    between atoms: _331  and  _333
REMARK  138  A    between atoms: _333  and  _334
REMARK  139  A    between atoms: _337  and  _339
REMARK  140  A    between atoms: _339  and  _340
REMARK  141  A    between atoms: _339  and  _342
REMARK  142  A    between atoms: _342  and  _343
REMARK  143  A    between atoms: _346  and  _348
REMARK  144  A    between atoms: _348  and  _349
REMARK  145  A    between atoms: _348  and  _351
REMARK  146  A    between atoms: _351  and  _352
REMARK  147  A    between atoms: _355  and  _357
REMARK  148  A    between atoms: _357  and  _358
REMARK  149  A    between atoms: _357  and  _360
REMARK  150  A    between atoms: _360  and  _361
REMARK  151  A    between atoms: _364  and  _366
REMARK  152  A    between atoms: _366  and  _367
REMARK  153  A    between atoms: _366  and  _369
REMARK  154  A    between atoms: _372  and  _374
REMARK  155  A    between atoms: _374  and  _375
REMARK  156  A    between atoms: _374  and  _377
REMARK  157  A    between atoms: _377  and  _378
REMARK  158  A    between atoms: _378  and  _379
REMARK  159  A    between atoms: _379  and  _380
REMARK  160  A    between atoms: _380  and  _381
REMARK  161  A    between atoms: _385  and  _387
REMARK  162  A    between atoms: _387  and  _388
REMARK  163  A    between atoms: _387  and  _390
REMARK  164  A    between atoms: _390  and  _391
REMARK  165  A    between atoms: _394  and  _396
REMARK  166  A    between atoms: _396  and  _397
REMARK  167  A    between atoms: _399  and  _401
REMARK  168  A    between atoms: _401  and  _402
REMARK  169  A    between atoms: _404  and  _406
REMARK  170  A    between atoms: _406  and  _407
REMARK  171  A    between atoms: _406  and  _409
REMARK  172  A    between atoms: _409  and  _410
REMARK  173  A    between atoms: _413  and  _415
REMARK  174  A    between atoms: _415  and  _416
REMARK  175  A    between atoms: _418  and  _420
REMARK  176  A    between atoms: _420  and  _421
REMARK  177  A    between atoms: _423  and  _425
REMARK  178  A    between atoms: _425  and  _426
REMARK  179  A    between atoms: _425  and  _428
REMARK  180  A    between atoms: _428  and  _429
REMARK  181  A    between atoms: _435  and  _437
REMARK  182  A    between atoms: _437  and  _438
REMARK  183  A    between atoms: _437  and  _440
REMARK  184  A    between atoms: _440  and  _441
REMARK  185  A    between atoms: _444  and  _446
REMARK  186  A    between atoms: _446  and  _447
REMARK  187  A    between atoms: _446  and  _449
REMARK  188  A    between atoms: _452  and  _454
REMARK  189  A    between atoms: _454  and  _455
REMARK  190  A    between atoms: _454  and  _457
REMARK  191  A    between atoms: _457  and  _458
REMARK  192  A    between atoms: _461  and  _463
REMARK  193  A    between atoms: _463  and  _464
REMARK  194  A    between atoms: _463  and  _466
REMARK  195  A    between atoms: _466  and  _467
REMARK  196  A    between atoms: _471  and  _472
REMARK  197  A    between atoms: _477  and  _479
REMARK  198  A    between atoms: _479  and  _480
REMARK  199  A    between atoms: _479  and  _482
REMARK  200  A    between atoms: _485  and  _487
REMARK  201  A    between atoms: _487  and  _488
REMARK  202  A    between atoms: _487  and  _490
REMARK  203  A    between atoms: _490  and  _491
REMARK  204  A    between atoms: _494  and  _496
REMARK  205  A    between atoms: _496  and  _497
REMARK  206  A    between atoms: _496  and  _499
REMARK  207  A    between atoms: _499  and  _500
REMARK  208  A    between atoms: _503  and  _505
REMARK  209  A    between atoms: _505  and  _506
REMARK  210  A    between atoms: _508  and  _510
REMARK  211  A    between atoms: _510  and  _511
REMARK  212  A    between atoms: _510  and  _513
REMARK  213  A    between atoms: _513  and  _514
REMARK  214  A    between atoms: _514  and  _515
REMARK  215  A    between atoms: _515  and  _516
REMARK  216  A    between atoms: _525  and  _527
REMARK  217  A    between atoms: _527  and  _528
REMARK  218  A    between atoms: _527  and  _530
REMARK  219  A    between atoms: _530  and  _531
REMARK                            x       y       z     vdW  Elec       q    Type
REMARK                         _______ _______ _______ _____ _____    ______ ____
ROOT
ATOM      1  C   ILE A   4       7.479  -5.062   8.687  0.00  0.00    +0.241 C 
ATOM      2  O   ILE A   4       6.358  -5.469   9.003  0.00  0.00    -0.273 OA
ATOM      3  N   GLY A   5       8.188  -5.495   7.669  0.00  0.00    -0.295 N 
ATOM      4  H   GLY A   5       9.099  -5.064   7.411  0.00  0.00    +0.150 HD
ENDROOT
BRANCH   3   5
ATOM      5  CA  GLY A   5       7.626  -6.616   6.919  0.00  0.00    +0.176 C 
BRANCH   5   6
ATOM      6  C   GLY A   5       6.806  -6.239   5.721  0.00  0.00    +0.243 C 
ATOM      7  N   GLY A   6       6.329  -5.012   5.699  0.00  0.00    -0.295 N 
ATOM      8  H   GLY A   6       6.390  -4.389   6.530  0.00  0.00    +0.150 HD
ATOM      9  O   GLY A   5       6.628  -7.058   4.843  0.00  0.00    -0.273 OA
BRANCH   7  10
ATOM     10  CA  GLY A   6       5.721  -4.574   4.474  0.00  0.00    +0.176 C 
BRANCH  10  11
ATOM     11  C   GLY A   6       4.388  -3.966   4.708  0.00  0.00    +0.243 C 
ATOM     12  O   GLY A   6       4.162  -3.364   5.746  0.00  0.00    -0.273 OA
ATOM     13  N   PHE A   7       3.564  -4.083   3.657  0.00  0.00    -0.297 N 
ATOM     14  H   PHE A   7       3.785  -4.827   2.965  0.00  0.00    +0.150 HD
BRANCH  13  15
ATOM     15  CA  PHE A   7       2.370  -3.252   3.390  0.00  0.00    +0.153 C 
BRANCH  15  16
ATOM     16  C   PHE A   7       1.161  -4.145   3.375  0.00  0.00    +0.241 C 
ATOM     17  N   ILE A   8       0.135  -3.680   4.070  0.00  0.00    -0.298 N 
ATOM     18  H   ILE A   8       0.230  -2.768   4.561  0.00  0.00    +0.150 HD
ATOM     19  O   PHE A   7       1.188  -5.220   2.788  0.00  0.00    -0.273 OA
BRANCH  17  20
ATOM     20  CA  ILE A   8      -1.112  -4.402   4.167  0.00  0.00    +0.137 C 
BRANCH  20  21
ATOM     21  C   ILE A   8      -2.228  -3.457   3.801  0.00  0.00    +0.227 C 
ATOM     22  O   ILE A   8      -2.111  -2.249   3.911  0.00  0.00    -0.286 OA
ENDBRANCH  20  21
BRANCH  20  23
ATOM     23  CB  ILE A   8      -1.332  -4.990   5.589  0.00  0.00    +0.026 C 
ATOM     24  CG2 ILE A   8      -0.252  -6.001   5.938  0.00  0.00    +0.002 C 
BRANCH  23  25
ATOM     25  CG1 ILE A   8      -1.414  -3.987   6.710  0.00  0.00    +0.002 C 
ATOM     26  CD1 ILE A   8      -2.143  -4.518   7.952  0.00  0.00    +0.000 C 
ENDBRANCH  23  25
ENDBRANCH  20  23
ENDBRANCH  17  20
ENDBRANCH  15  16
BRANCH  15  27
ATOM     27  CB  PHE A   7       2.435  -2.498   2.007  0.00  0.00    +0.055 C 
BRANCH  27  28
ATOM     28  CG  PHE A   7       3.313  -1.277   2.078  0.00  0.00    -0.020 A 
ATOM     29  CD2 PHE A   7       2.757  -0.047   2.382  0.00  0.00    -0.004 A 
ATOM     30  CE2 PHE A   7       3.595   1.034   2.598  0.00  0.00    -0.000 A 
ATOM     31  CZ  PHE A   7       4.985   0.905   2.520  0.00  0.00    -0.000 A 
ATOM     32  CE1 PHE A   7       5.526  -0.323   2.204  0.00  0.00    -0.000 A 
ATOM     33  CD1 PHE A   7       4.685  -1.401   1.972  0.00  0.00    -0.004 A 
ENDBRANCH  27  28
ENDBRANCH  15  27
ENDBRANCH  13  15
ENDBRANCH  10  11
ENDBRANCH   7  10
ENDBRANCH   5   6
ENDBRANCH   3   5
BRANCH   1  34
ATOM     34  CA  ILE A   4       8.151  -3.935   9.420  0.00  0.00    +0.149 C 
BRANCH  34  36
ATOM     35  C   GLY A   3       6.610  -2.288   8.554  0.00  0.00    +0.243 C 
ATOM     36  N   ILE A   4       7.163  -2.869   9.598  0.00  0.00    -0.297 N 
ATOM     37  H   ILE A   4       6.896  -2.568  10.557  0.00  0.00    +0.150 HD
ATOM     38  O   GLY A   3       6.918  -2.526   7.399  0.00  0.00    -0.273 OA
BRANCH  35  39
ATOM     39  CA  GLY A   3       5.546  -1.301   8.850  0.00  0.00    +0.176 C 
BRANCH  39  42
ATOM     40  C   GLY A   2       3.894  -0.291   7.486  0.00  0.00    +0.243 C 
ATOM     41  O   GLY A   2       3.727   0.619   8.286  0.00  0.00    -0.273 OA
ATOM     42  N   GLY A   3       4.773  -1.246   7.641  0.00  0.00    -0.295 N 
ATOM     43  H   GLY A   3       4.911  -1.959   6.896  0.00  0.00    +0.150 HD
BRANCH  40  44
ATOM     44  CA  GLY A   2       3.106  -0.371   6.222  0.00  0.00    +0.176 C 
BRANCH  44  46
ATOM     45  C   ILE A   1       0.811  -0.001   5.665  0.00  0.00    +0.238 C 
ATOM     46  N   GLY A   2       1.919   0.472   6.225  0.00  0.00    -0.296 N 
ATOM     47  H   GLY A   2       1.938   1.419   6.654  0.00  0.00    +0.150 HD
ATOM     48  O   ILE A   1       0.736  -1.097   5.157  0.00  0.00    -0.274 OA
BRANCH  45  49
ATOM     49  CA  ILE A   1      -0.407   0.874   5.666  0.00  0.00    +0.145 C 
BRANCH  49  50
ATOM     50  N   ILE A   1      -1.333   0.398   4.632  0.00  0.00    -0.238 NA
ATOM     51  H   ILE A   1      -1.576  -0.613   4.598  0.00  0.00    +0.142 HD
ENDBRANCH  49  50
BRANCH  49  52
ATOM     52  CB  ILE A   1      -1.061   0.804   7.060  0.00  0.00    +0.025 C 
ATOM     53  CG2 ILE A   1      -2.176   1.824   7.194  0.00  0.00    +0.002 C 
BRANCH  52  54
ATOM     54  CG1 ILE A   1      -1.597  -0.577   7.396  0.00  0.00    +0.002 C 
ATOM     55  CD1 ILE A   1      -2.121  -0.614   8.826  0.00  0.00    +0.000 C 
ENDBRANCH  52  54
ENDBRANCH  49  52
ENDBRANCH  45  49
ENDBRANCH  44  46
ENDBRANCH  40  44
ENDBRANCH  39  42
ENDBRANCH  35  39
ENDBRANCH  34  36
BRANCH  34  56
ATOM     56  CB  ILE A   4       8.557  -4.426  10.806  0.00  0.00    +0.027 C 
ATOM     57  CG2 ILE A   4       9.097  -5.856  10.855  0.00  0.00    +0.002 C 
BRANCH  56  58
ATOM     58  CG1 ILE A   4       9.505  -3.479  11.524  0.00  0.00    +0.002 C 
ATOM     59  CD1 ILE A   4      10.978  -3.472  11.110  0.00  0.00    +0.000 C 
ENDBRANCH  56  58
ENDBRANCH  34  56
ENDBRANCH   1  34
TORSDOF 24
REMARK  Name = ../refined-set-2016/1hpx/1hpx_pocket.pdb
REMARK  219 active torsions:
REMARK  status: ('A' for Active; 'I' for Inactive)
REMARK    1  A    between atoms: _1  and  _3
REMARK    2  A    between atoms: _3  and  _4
REMARK    3  A    between atoms: _3  and  _6
REMARK    4  A    between atoms: _6  and  _7
REMARK    5  A    between atoms: _7  and  _8
REMARK    6  A    between atoms: _8  and  _9
REMARK    7  A    between atoms: _18  and  _20
REMARK    8  A    between atoms: _20  and  _21
REMARK    9  A    between atoms: _20  and  _23
REMARK   10  A    between atoms: _23  and  _24
REMARK   11  A    between atoms: _27  and  _29
REMARK   12  A    between atoms: _29  and  _30
REMARK   13  A    between atoms: _29  and  _32
REMARK   14  A    between atoms: _32  and  _33
REMARK   15  A    between atoms: _36  and  _38
REMARK   16  A    between atoms: _38  and  _39
REMARK   17  A    between atoms: _38  and  _41
REMARK   18  A    between atoms: _41  and  _42
REMARK   19  A    between atoms: _45  and  _47
REMARK   20  A    between atoms: _47  and  _48
REMARK   21  A    between atoms: _47  and  _50
REMARK   22  A    between atoms: _50  and  _51
REMARK   23  A    between atoms: _54  and  _56
REMARK   24  A    between atoms: _56  and  _57
REMARK   25  A    between atoms: _59  and  _61
REMARK   26  A    between atoms: _61  and  _62
REMARK   27  A    between atoms: _65  and  _67
REMARK   28  A    between atoms: _67  and  _68
REMARK   29  A    between atoms: _67  and  _70
REMARK   30  A    between atoms: _70  and  _71
REMARK   31  A    between atoms: _74  and  _76
REMARK   32  A    between atoms: _76  and  _77
REMARK   33  A    between atoms: _76  and  _79
REMARK   34  A    between atoms: _79  and  _80
REMARK   35  A    between atoms: _83  and  _85
REMARK   36  A    between atoms: _85  and  _86
REMARK   37  A    between atoms: _85  and  _88
REMARK   38  A    between atoms: _88  and  _89
REMARK   39  A    between atoms: _92  and  _94
REMARK   40  A    between atoms: _94  and  _95
REMARK   41  A    between atoms: _94  and  _97
REMARK   42  A    between atoms: _100  and  _102
REMARK   43  A    between atoms: _102  and  _103
REMARK   44  A    between atoms: _102  and  _105
REMARK   45  A    between atoms: _105  and  _106
REMARK   46  A    between atoms: _106  and  _107
REMARK   47  A    between atoms: _107  and  _108
REMARK   48  A    between atoms: _108  and  _109
REMARK   49  A    between atoms: _113  and  _115
REMARK   50  A    between atoms: _115  and  _116
REMARK   51  A    between atoms: _115  and  _118
REMARK   52  A    between atoms: _118  and  _119
REMARK   53  A    between atoms: _119  and  _120
REMARK   54  A    between atoms: _122  and  _124
REMARK   55  A    between atoms: _124  and  _125
REMARK   56  A    between atoms: _124  and  _127
REMARK   57  A    between atoms: _127  and  _128
REMARK   58  A    between atoms: _131  and  _133
REMARK   59  A    between atoms: _133  and  _134
REMARK   60  A    between atoms: _136  and  _138
REMARK   61  A    between atoms: _138  and  _139
REMARK   62  A    between atoms: _141  and  _143
REMARK   63  A    between atoms: _143  and  _144
REMARK   64  A    between atoms: _143  and  _146
REMARK   65  A    between atoms: _146  and  _147
REMARK   66  A    between atoms: _150  and  _152
REMARK   67  A    between atoms: _152  and  _153
REMARK   68  A    between atoms: _155  and  _157
REMARK   69  A    between atoms: _157  and  _158
REMARK   70  A    between atoms: _160  and  _162
REMARK   71  A    between atoms: _162  and  _163
REMARK   72  A    between atoms: _162  and  _165
REMARK   73  A    between atoms: _165  and  _166
REMARK   74  A    between atoms: _172  and  _174
REMARK   75  A    between atoms: _174  and  _175
REMARK   76  A    between atoms: _174  and  _177
REMARK   77  A    between atoms: _177  and  _178
REMARK   78  A    between atoms: _181  and  _183
REMARK   79  A    between atoms: _183  and  _184
REMARK   80  A    between atoms: _183  and  _186
REMARK   81  A    between atoms: _189  and  _191
REMARK   82  A    between atoms: _191  and  _192
REMARK   83  A    between atoms: _191  and  _194
REMARK   84  A    between atoms: _194  and  _195
REMARK   85  A    between atoms: _198  and  _200
REMARK   86  A    between atoms: _200  and  _201
REMARK   87  A    between atoms: _200  and  _203
REMARK   88  A    between atoms: _203  and  _204
REMARK   89  A    between atoms: _208  and  _209
REMARK   90  A    between atoms: _214  and  _216
REMARK   91  A    between atoms: _216  and  _217
REMARK   92  A    between atoms: _216  and  _219
REMARK   93  A    between atoms: _222  and  _224
REMARK   94  A    between atoms: _224  and  _225
REMARK   95  A    between atoms: _224  and  _227
REMARK   96  A    between atoms: _227  and  _228
REMARK   97  A    between atoms: _233  and  _235
REMARK   98  A    between atoms: _235  and  _236
REMARK   99  A    between atoms: _235  and  _238
REMARK  100  A    between atoms: _238  and  _239
REMARK  101  A    between atoms: _242  and  _244
REMARK  102  A    between atoms: _244  and  _245
REMARK  103  A    between atoms: _244  and  _247
REMARK  104  A    between atoms: _247  and  _248
REMARK  105  A    between atoms: _251  and  _253
REMARK  106  A    between atoms: _253  and  _254
REMARK  107  A    between atoms: _256  and  _258
REMARK  108  A    between atoms: _258  and  _259
REMARK  109  A    between atoms: _258  and  _261
REMARK  110  A    between atoms: _261  and  _262
REMARK  111  A    between atoms: _262  and  _263
REMARK  112  A    between atoms: _263  and  _264
REMARK  113  A    between atoms: _273  and  _275
REMARK  114  A    between atoms: _275  and  _276
REMARK  115  A    between atoms: _275  and  _278
REMARK  116  A    between atoms: _278  and  _279
REMARK  117  A    between atoms: _279  and  _280
REMARK  118  A    between atoms: _280  and  _281
REMARK  119  A    between atoms: _290  and  _292
REMARK  120  A    between atoms: _292  and  _293
REMARK  121  A    between atoms: _292  and  _295
REMARK  122  A    between atoms: _295  and  _296
REMARK  123  A    between atoms: _299  and  _301
REMARK  124  A    between atoms: _301  and  _302
REMARK  125  A    between atoms: _301  and  _304
REMARK  126  A    between atoms: _304  and  _305
REMARK  127  A    between atoms: _308  and  _310
REMARK  128  A    between atoms: _310  and  _311
REMARK  129  A    between atoms: _310  and  _313
REMARK  130  A    between atoms: _313  and  _314
REMARK  131  A    between atoms: _317  and  _319
REMARK  132  A    between atoms: _319  and  _320
REMARK  133  A    between atoms: _319  and  _322
REMARK  134  A    between atoms: _322  and  _323
REMARK  135  A    between atoms: _326  and  _328
REMARK  136  A    between atoms: _328  and  _329
REMARK  137  A    between atoms: _331  and  _333
REMARK  138  A    between atoms: _333  and  _334
REMARK  139  A    between atoms: _337  and  _339
REMARK  140  A    between atoms: _339  and  _340
REMARK  141  A    between atoms: _339  and  _342
REMARK  142  A    between atoms: _342  and  _343
REMARK  143  A    between atoms: _346  and  _348
REMARK  144  A    between atoms: _348  and  _349
REMARK  145  A    between atoms: _348  and  _351
REMARK  146  A    between atoms: _351  and  _352
REMARK  147  A    between atoms: _355  and  _357
REMARK  148  A    between atoms: _357  and  _358
REMARK  149  A    between atoms: _357  and  _360
REMARK  150  A    between atoms: _360  and  _361
REMARK  151  A    between atoms: _364  and  _366
REMARK  152  A    between atoms: _366  and  _367
REMARK  153  A    between atoms: _366  and  _369
REMARK  154  A    between atoms: _372  and  _374
REMARK  155  A    between atoms: _374  and  _375
REMARK  156  A    between atoms: _374  and  _377
REMARK  157  A    between atoms: _377  and  _378
REMARK  158  A    between atoms: _378  and  _379
REMARK  159  A    between atoms: _379  and  _380
REMARK  160  A    between atoms: _380  and  _381
REMARK  161  A    between atoms: _385  and  _387
REMARK  162  A    between atoms: _387  and  _388
REMARK  163  A    between atoms: _387  and  _390
REMARK  164  A    between atoms: _390  and  _391
REMARK  165  A    between atoms: _394  and  _396
REMARK  166  A    between atoms: _396  and  _397
REMARK  167  A    between atoms: _399  and  _401
REMARK  168  A    between atoms: _401  and  _402
REMARK  169  A    between atoms: _404  and  _406
REMARK  170  A    between atoms: _406  and  _407
REMARK  171  A    between atoms: _406  and  _409
REMARK  172  A    between atoms: _409  and  _410
REMARK  173  A    between atoms: _413  and  _415
REMARK  174  A    between atoms: _415  and  _416
REMARK  175  A    between atoms: _418  and  _420
REMARK  176  A    between atoms: _420  and  _421
REMARK  177  A    between atoms: _423  and  _425
REMARK  178  A    between atoms: _425  and  _426
REMARK  179  A    between atoms: _425  and  _428
REMARK  180  A    between atoms: _428  and  _429
REMARK  181  A    between atoms: _435  and  _437
REMARK  182  A    between atoms: _437  and  _438
REMARK  183  A    between atoms: _437  and  _440
REMARK  184  A    between atoms: _440  and  _441
REMARK  185  A    between atoms: _444  and  _446
REMARK  186  A    between atoms: _446  and  _447
REMARK  187  A    between atoms: _446  and  _449
REMARK  188  A    between atoms: _452  and  _454
REMARK  189  A    between atoms: _454  and  _455
REMARK  190  A    between atoms: _454  and  _457
REMARK  191  A    between atoms: _457  and  _458
REMARK  192  A    between atoms: _461  and  _463
REMARK  193  A    between atoms: _463  and  _464
REMARK  194  A    between atoms: _463  and  _466
REMARK  195  A    between atoms: _466  and  _467
REMARK  196  A    between atoms: _471  and  _472
REMARK  197  A    between atoms: _477  and  _479
REMARK  198  A    between atoms: _479  and  _480
REMARK  199  A    between atoms: _479  and  _482
REMARK  200  A    between atoms: _485  and  _487
REMARK  201  A    between atoms: _487  and  _488
REMARK  202  A    between atoms: _487  and  _490
REMARK  203  A    between atoms: _490  and  _491
REMARK  204  A    between atoms: _494  and  _496
REMARK  205  A    between atoms: _496  and  _497
REMARK  206  A    between atoms: _496  and  _499
REMARK  207  A    between atoms: _499  and  _500
REMARK  208  A    between atoms: _503  and  _505
REMARK  209  A    between atoms: _505  and  _506
REMARK  210  A    between atoms: _508  and  _510
REMARK  211  A    between atoms: _510  and  _511
REMARK  212  A    between atoms: _510  and  _513
REMARK  213  A    between atoms: _513  and  _514
REMARK  214  A    between atoms: _514  and  _515
REMARK  215  A    between atoms: _515  and  _516
REMARK  216  A    between atoms: _525  and  _527
REMARK  217  A    between atoms: _527  and  _528
REMARK  218  A    between atoms: _527  and  _530
REMARK  219  A    between atoms: _530  and  _531
REMARK                            x       y       z     vdW  Elec       q    Type
REMARK                         _______ _______ _______ _____ _____    ______ ____
ROOT
ATOM      1  CA  VAL A   1      -7.028  -2.206   5.646  0.00  0.00    +0.133 C 
ENDROOT
BRANCH   1   2
ATOM      2  CB  VAL A   1      -6.316  -1.423   6.795  0.00  0.00    +0.023 C 
ATOM      3  CG2 VAL A   1      -5.206  -2.247   7.439  0.00  0.00    +0.002 C 
ATOM      4  CG1 VAL A   1      -5.780  -0.053   6.340  0.00  0.00    +0.002 C 
ENDBRANCH   1   2
BRANCH   1   5
ATOM      5  N   VAL A   1      -6.146  -2.341   4.492  0.00  0.00    -0.239 NA
ATOM      6  H   VAL A   1      -6.063  -1.532   3.844  0.00  0.00    +0.142 HD
ENDBRANCH   1   5
BRANCH   1   7
ATOM      7  C   VAL A   1      -8.250  -1.459   5.185  0.00  0.00    +0.224 C 
ATOM      8  O   VAL A   1      -8.261  -0.900   4.103  0.00  0.00    -0.287 OA
ENDBRANCH   1   7
TORSDOF 3
REMARK  Name = ../refined-set-2016/1hpx/1hpx_pocket.pdb
REMARK  219 active torsions:
REMARK  status: ('A' for Active; 'I' for Inactive)
REMARK    1  A    between atoms: _1  and  _3
REMARK    2  A    between atoms: _3  and  _4
REMARK    3  A    between atoms: _3  and  _6
REMARK    4  A    between atoms: _6  and  _7
REMARK    5  A    between atoms: _7  and  _8
REMARK    6  A    between atoms: _8  and  _9
REMARK    7  A    between atoms: _18  and  _20
REMARK    8  A    between atoms: _20  and  _21
REMARK    9  A    between atoms: _20  and  _23
REMARK   10  A    between atoms: _23  and  _24
REMARK   11  A    between atoms: _27  and  _29
REMARK   12  A    between atoms: _29  and  _30
REMARK   13  A    between atoms: _29  and  _32
REMARK   14  A    between atoms: _32  and  _33
REMARK   15  A    between atoms: _36  and  _38
REMARK   16  A    between atoms: _38  and  _39
REMARK   17  A    between atoms: _38  and  _41
REMARK   18  A    between atoms: _41  and  _42
REMARK   19  A    between atoms: _45  and  _47
REMARK   20  A    between atoms: _47  and  _48
REMARK   21  A    between atoms: _47  and  _50
REMARK   22  A    between atoms: _50  and  _51
REMARK   23  A    between atoms: _54  and  _56
REMARK   24  A    between atoms: _56  and  _57
REMARK   25  A    between atoms: _59  and  _61
REMARK   26  A    between atoms: _61  and  _62
REMARK   27  A    between atoms: _65  and  _67
REMARK   28  A    between atoms: _67  and  _68
REMARK   29  A    between atoms: _67  and  _70
REMARK   30  A    between atoms: _70  and  _71
REMARK   31  A    between atoms: _74  and  _76
REMARK   32  A    between atoms: _76  and  _77
REMARK   33  A    between atoms: _76  and  _79
REMARK   34  A    between atoms: _79  and  _80
REMARK   35  A    between atoms: _83  and  _85
REMARK   36  A    between atoms: _85  and  _86
REMARK   37  A    between atoms: _85  and  _88
REMARK   38  A    between atoms: _88  and  _89
REMARK   39  A    between atoms: _92  and  _94
REMARK   40  A    between atoms: _94  and  _95
REMARK   41  A    between atoms: _94  and  _97
REMARK   42  A    between atoms: _100  and  _102
REMARK   43  A    between atoms: _102  and  _103
REMARK   44  A    between atoms: _102  and  _105
REMARK   45  A    between atoms: _105  and  _106
REMARK   46  A    between atoms: _106  and  _107
REMARK   47  A    between atoms: _107  and  _108
REMARK   48  A    between atoms: _108  and  _109
REMARK   49  A    between atoms: _113  and  _115
REMARK   50  A    between atoms: _115  and  _116
REMARK   51  A    between atoms: _115  and  _118
REMARK   52  A    between atoms: _118  and  _119
REMARK   53  A    between atoms: _119  and  _120
REMARK   54  A    between atoms: _122  and  _124
REMARK   55  A    between atoms: _124  and  _125
REMARK   56  A    between atoms: _124  and  _127
REMARK   57  A    between atoms: _127  and  _128
REMARK   58  A    between atoms: _131  and  _133
REMARK   59  A    between atoms: _133  and  _134
REMARK   60  A    between atoms: _136  and  _138
REMARK   61  A    between atoms: _138  and  _139
REMARK   62  A    between atoms: _141  and  _143
REMARK   63  A    between atoms: _143  and  _144
REMARK   64  A    between atoms: _143  and  _146
REMARK   65  A    between atoms: _146  and  _147
REMARK   66  A    between atoms: _150  and  _152
REMARK   67  A    between atoms: _152  and  _153
REMARK   68  A    between atoms: _155  and  _157
REMARK   69  A    between atoms: _157  and  _158
REMARK   70  A    between atoms: _160  and  _162
REMARK   71  A    between atoms: _162  and  _163
REMARK   72  A    between atoms: _162  and  _165
REMARK   73  A    between atoms: _165  and  _166
REMARK   74  A    between atoms: _172  and  _174
REMARK   75  A    between atoms: _174  and  _175
REMARK   76  A    between atoms: _174  and  _177
REMARK   77  A    between atoms: _177  and  _178
REMARK   78  A    between atoms: _181  and  _183
REMARK   79  A    between atoms: _183  and  _184
REMARK   80  A    between atoms: _183  and  _186
REMARK   81  A    between atoms: _189  and  _191
REMARK   82  A    between atoms: _191  and  _192
REMARK   83  A    between atoms: _191  and  _194
REMARK   84  A    between atoms: _194  and  _195
REMARK   85  A    between atoms: _198  and  _200
REMARK   86  A    between atoms: _200  and  _201
REMARK   87  A    between atoms: _200  and  _203
REMARK   88  A    between atoms: _203  and  _204
REMARK   89  A    between atoms: _208  and  _209
REMARK   90  A    between atoms: _214  and  _216
REMARK   91  A    between atoms: _216  and  _217
REMARK   92  A    between atoms: _216  and  _219
REMARK   93  A    between atoms: _222  and  _224
REMARK   94  A    between atoms: _224  and  _225
REMARK   95  A    between atoms: _224  and  _227
REMARK   96  A    between atoms: _227  and  _228
REMARK   97  A    between atoms: _233  and  _235
REMARK   98  A    between atoms: _235  and  _236
REMARK   99  A    between atoms: _235  and  _238
REMARK  100  A    between atoms: _238  and  _239
REMARK  101  A    between atoms: _242  and  _244
REMARK  102  A    between atoms: _244  and  _245
REMARK  103  A    between atoms: _244  and  _247
REMARK  104  A    between atoms: _247  and  _248
REMARK  105  A    between atoms: _251  and  _253
REMARK  106  A    between atoms: _253  and  _254
REMARK  107  A    between atoms: _256  and  _258
REMARK  108  A    between atoms: _258  and  _259
REMARK  109  A    between atoms: _258  and  _261
REMARK  110  A    between atoms: _261  and  _262
REMARK  111  A    between atoms: _262  and  _263
REMARK  112  A    between atoms: _263  and  _264
REMARK  113  A    between atoms: _273  and  _275
REMARK  114  A    between atoms: _275  and  _276
REMARK  115  A    between atoms: _275  and  _278
REMARK  116  A    between atoms: _278  and  _279
REMARK  117  A    between atoms: _279  and  _280
REMARK  118  A    between atoms: _280  and  _281
REMARK  119  A    between atoms: _290  and  _292
REMARK  120  A    between atoms: _292  and  _293
REMARK  121  A    between atoms: _292  and  _295
REMARK  122  A    between atoms: _295  and  _296
REMARK  123  A    between atoms: _299  and  _301
REMARK  124  A    between atoms: _301  and  _302
REMARK  125  A    between atoms: _301  and  _304
REMARK  126  A    between atoms: _304  and  _305
REMARK  127  A    between atoms: _308  and  _310
REMARK  128  A    between atoms: _310  and  _311
REMARK  129  A    between atoms: _310  and  _313
REMARK  130  A    between atoms: _313  and  _314
REMARK  131  A    between atoms: _317  and  _319
REMARK  132  A    between atoms: _319  and  _320
REMARK  133  A    between atoms: _319  and  _322
REMARK  134  A    between atoms: _322  and  _323
REMARK  135  A    between atoms: _326  and  _328
REMARK  136  A    between atoms: _328  and  _329
REMARK  137  A    between atoms: _331  and  _333
REMARK  138  A    between atoms: _333  and  _334
REMARK  139  A    between atoms: _337  and  _339
REMARK  140  A    between atoms: _339  and  _340
REMARK  141  A    between atoms: _339  and  _342
REMARK  142  A    between atoms: _342  and  _343
REMARK  143  A    between atoms: _346  and  _348
REMARK  144  A    between atoms: _348  and  _349
REMARK  145  A    between atoms: _348  and  _351
REMARK  146  A    between atoms: _351  and  _352
REMARK  147  A    between atoms: _355  and  _357
REMARK  148  A    between atoms: _357  and  _358
REMARK  149  A    between atoms: _357  and  _360
REMARK  150  A    between atoms: _360  and  _361
REMARK  151  A    between atoms: _364  and  _366
REMARK  152  A    between atoms: _366  and  _367
REMARK  153  A    between atoms: _366  and  _369
REMARK  154  A    between atoms: _372  and  _374
REMARK  155  A    between atoms: _374  and  _375
REMARK  156  A    between atoms: _374  and  _377
REMARK  157  A    between atoms: _377  and  _378
REMARK  158  A    between atoms: _378  and  _379
REMARK  159  A    between atoms: _379  and  _380
REMARK  160  A    between atoms: _380  and  _381
REMARK  161  A    between atoms: _385  and  _387
REMARK  162  A    between atoms: _387  and  _388
REMARK  163  A    between atoms: _387  and  _390
REMARK  164  A    between atoms: _390  and  _391
REMARK  165  A    between atoms: _394  and  _396
REMARK  166  A    between atoms: _396  and  _397
REMARK  167  A    between atoms: _399  and  _401
REMARK  168  A    between atoms: _401  and  _402
REMARK  169  A    between atoms: _404  and  _406
REMARK  170  A    between atoms: _406  and  _407
REMARK  171  A    between atoms: _406  and  _409
REMARK  172  A    between atoms: _409  and  _410
REMARK  173  A    between atoms: _413  and  _415
REMARK  174  A    between atoms: _415  and  _416
REMARK  175  A    between atoms: _418  and  _420
REMARK  176  A    between atoms: _420  and  _421
REMARK  177  A    between atoms: _423  and  _425
REMARK  178  A    between atoms: _425  and  _426
REMARK  179  A    between atoms: _425  and  _428
REMARK  180  A    between atoms: _428  and  _429
REMARK  181  A    between atoms: _435  and  _437
REMARK  182  A    between atoms: _437  and  _438
REMARK  183  A    between atoms: _437  and  _440
REMARK  184  A    between atoms: _440  and  _441
REMARK  185  A    between atoms: _444  and  _446
REMARK  186  A    between atoms: _446  and  _447
REMARK  187  A    between atoms: _446  and  _449
REMARK  188  A    between atoms: _452  and  _454
REMARK  189  A    between atoms: _454  and  _455
REMARK  190  A    between atoms: _454  and  _457
REMARK  191  A    between atoms: _457  and  _458
REMARK  192  A    between atoms: _461  and  _463
REMARK  193  A    between atoms: _463  and  _464
REMARK  194  A    between atoms: _463  and  _466
REMARK  195  A    between atoms: _466  and  _467
REMARK  196  A    between atoms: _471  and  _472
REMARK  197  A    between atoms: _477  and  _479
REMARK  198  A    between atoms: _479  and  _480
REMARK  199  A    between atoms: _479  and  _482
REMARK  200  A    between atoms: _485  and  _487
REMARK  201  A    between atoms: _487  and  _488
REMARK  202  A    between atoms: _487  and  _490
REMARK  203  A    between atoms: _490  and  _491
REMARK  204  A    between atoms: _494  and  _496
REMARK  205  A    between atoms: _496  and  _497
REMARK  206  A    between atoms: _496  and  _499
REMARK  207  A    between atoms: _499  and  _500
REMARK  208  A    between atoms: _503  and  _505
REMARK  209  A    between atoms: _505  and  _506
REMARK  210  A    between atoms: _508  and  _510
REMARK  211  A    between atoms: _510  and  _511
REMARK  212  A    between atoms: _510  and  _513
REMARK  213  A    between atoms: _513  and  _514
REMARK  214  A    between atoms: _514  and  _515
REMARK  215  A    between atoms: _515  and  _516
REMARK  216  A    between atoms: _525  and  _527
REMARK  217  A    between atoms: _527  and  _528
REMARK  218  A    between atoms: _527  and  _530
REMARK  219  A    between atoms: _530  and  _531
REMARK                            x       y       z     vdW  Elec       q    Type
REMARK                         _______ _______ _______ _____ _____    ______ ____
ROOT
ATOM      1  CA  LEU A   1      -8.324   1.163  10.487  0.00  0.00    +0.133 C 
ENDROOT
BRANCH   1   2
ATOM      2  N   LEU A   1      -8.564   2.099  11.592  0.00  0.00    -0.239 NA
ATOM      3  H   LEU A   1      -7.831   2.244  12.315  0.00  0.00    +0.142 HD
ENDBRANCH   1   2
BRANCH   1   4
ATOM      4  C   LEU A   1      -8.494  -0.289  10.994  0.00  0.00    +0.224 C 
ATOM      5  O   LEU A   1      -8.054  -0.624  12.085  0.00  0.00    -0.287 OA
ENDBRANCH   1   4
BRANCH   1   6
ATOM      6  CB  LEU A   1      -6.909   1.349   9.952  0.00  0.00    +0.025 C 
BRANCH   6   7
ATOM      7  CG  LEU A   1      -6.373   2.748   9.732  0.00  0.00    +0.002 C 
ATOM      8  CD2 LEU A   1      -4.962   2.619   9.295  0.00  0.00    +0.000 C 
ATOM      9  CD1 LEU A   1      -7.054   3.450   8.591  0.00  0.00    +0.000 C 
ENDBRANCH   6   7
ENDBRANCH   1   6
TORSDOF 4
REMARK  Name = ../refined-set-2016/1hpx/1hpx_pocket.pdb
REMARK  219 active torsions:
REMARK  status: ('A' for Active; 'I' for Inactive)
REMARK    1  A    between atoms: _1  and  _3
REMARK    2  A    between atoms: _3  and  _4
REMARK    3  A    between atoms: _3  and  _6
REMARK    4  A    between atoms: _6  and  _7
REMARK    5  A    between atoms: _7  and  _8
REMARK    6  A    between atoms: _8  and  _9
REMARK    7  A    between atoms: _18  and  _20
REMARK    8  A    between atoms: _20  and  _21
REMARK    9  A    between atoms: _20  and  _23
REMARK   10  A    between atoms: _23  and  _24
REMARK   11  A    between atoms: _27  and  _29
REMARK   12  A    between atoms: _29  and  _30
REMARK   13  A    between atoms: _29  and  _32
REMARK   14  A    between atoms: _32  and  _33
REMARK   15  A    between atoms: _36  and  _38
REMARK   16  A    between atoms: _38  and  _39
REMARK   17  A    between atoms: _38  and  _41
REMARK   18  A    between atoms: _41  and  _42
REMARK   19  A    between atoms: _45  and  _47
REMARK   20  A    between atoms: _47  and  _48
REMARK   21  A    between atoms: _47  and  _50
REMARK   22  A    between atoms: _50  and  _51
REMARK   23  A    between atoms: _54  and  _56
REMARK   24  A    between atoms: _56  and  _57
REMARK   25  A    between atoms: _59  and  _61
REMARK   26  A    between atoms: _61  and  _62
REMARK   27  A    between atoms: _65  and  _67
REMARK   28  A    between atoms: _67  and  _68
REMARK   29  A    between atoms: _67  and  _70
REMARK   30  A    between atoms: _70  and  _71
REMARK   31  A    between atoms: _74  and  _76
REMARK   32  A    between atoms: _76  and  _77
REMARK   33  A    between atoms: _76  and  _79
REMARK   34  A    between atoms: _79  and  _80
REMARK   35  A    between atoms: _83  and  _85
REMARK   36  A    between atoms: _85  and  _86
REMARK   37  A    between atoms: _85  and  _88
REMARK   38  A    between atoms: _88  and  _89
REMARK   39  A    between atoms: _92  and  _94
REMARK   40  A    between atoms: _94  and  _95
REMARK   41  A    between atoms: _94  and  _97
REMARK   42  A    between atoms: _100  and  _102
REMARK   43  A    between atoms: _102  and  _103
REMARK   44  A    between atoms: _102  and  _105
REMARK   45  A    between atoms: _105  and  _106
REMARK   46  A    between atoms: _106  and  _107
REMARK   47  A    between atoms: _107  and  _108
REMARK   48  A    between atoms: _108  and  _109
REMARK   49  A    between atoms: _113  and  _115
REMARK   50  A    between atoms: _115  and  _116
REMARK   51  A    between atoms: _115  and  _118
REMARK   52  A    between atoms: _118  and  _119
REMARK   53  A    between atoms: _119  and  _120
REMARK   54  A    between atoms: _122  and  _124
REMARK   55  A    between atoms: _124  and  _125
REMARK   56  A    between atoms: _124  and  _127
REMARK   57  A    between atoms: _127  and  _128
REMARK   58  A    between atoms: _131  and  _133
REMARK   59  A    between atoms: _133  and  _134
REMARK   60  A    between atoms: _136  and  _138
REMARK   61  A    between atoms: _138  and  _139
REMARK   62  A    between atoms: _141  and  _143
REMARK   63  A    between atoms: _143  and  _144
REMARK   64  A    between atoms: _143  and  _146
REMARK   65  A    between atoms: _146  and  _147
REMARK   66  A    between atoms: _150  and  _152
REMARK   67  A    between atoms: _152  and  _153
REMARK   68  A    between atoms: _155  and  _157
REMARK   69  A    between atoms: _157  and  _158
REMARK   70  A    between atoms: _160  and  _162
REMARK   71  A    between atoms: _162  and  _163
REMARK   72  A    between atoms: _162  and  _165
REMARK   73  A    between atoms: _165  and  _166
REMARK   74  A    between atoms: _172  and  _174
REMARK   75  A    between atoms: _174  and  _175
REMARK   76  A    between atoms: _174  and  _177
REMARK   77  A    between atoms: _177  and  _178
REMARK   78  A    between atoms: _181  and  _183
REMARK   79  A    between atoms: _183  and  _184
REMARK   80  A    between atoms: _183  and  _186
REMARK   81  A    between atoms: _189  and  _191
REMARK   82  A    between atoms: _191  and  _192
REMARK   83  A    between atoms: _191  and  _194
REMARK   84  A    between atoms: _194  and  _195
REMARK   85  A    between atoms: _198  and  _200
REMARK   86  A    between atoms: _200  and  _201
REMARK   87  A    between atoms: _200  and  _203
REMARK   88  A    between atoms: _203  and  _204
REMARK   89  A    between atoms: _208  and  _209
REMARK   90  A    between atoms: _214  and  _216
REMARK   91  A    between atoms: _216  and  _217
REMARK   92  A    between atoms: _216  and  _219
REMARK   93  A    between atoms: _222  and  _224
REMARK   94  A    between atoms: _224  and  _225
REMARK   95  A    between atoms: _224  and  _227
REMARK   96  A    between atoms: _227  and  _228
REMARK   97  A    between atoms: _233  and  _235
REMARK   98  A    between atoms: _235  and  _236
REMARK   99  A    between atoms: _235  and  _238
REMARK  100  A    between atoms: _238  and  _239
REMARK  101  A    between atoms: _242  and  _244
REMARK  102  A    between atoms: _244  and  _245
REMARK  103  A    between atoms: _244  and  _247
REMARK  104  A    between atoms: _247  and  _248
REMARK  105  A    between atoms: _251  and  _253
REMARK  106  A    between atoms: _253  and  _254
REMARK  107  A    between atoms: _256  and  _258
REMARK  108  A    between atoms: _258  and  _259
REMARK  109  A    between atoms: _258  and  _261
REMARK  110  A    between atoms: _261  and  _262
REMARK  111  A    between atoms: _262  and  _263
REMARK  112  A    between atoms: _263  and  _264
REMARK  113  A    between atoms: _273  and  _275
REMARK  114  A    between atoms: _275  and  _276
REMARK  115  A    between atoms: _275  and  _278
REMARK  116  A    between atoms: _278  and  _279
REMARK  117  A    between atoms: _279  and  _280
REMARK  118  A    between atoms: _280  and  _281
REMARK  119  A    between atoms: _290  and  _292
REMARK  120  A    between atoms: _292  and  _293
REMARK  121  A    between atoms: _292  and  _295
REMARK  122  A    between atoms: _295  and  _296
REMARK  123  A    between atoms: _299  and  _301
REMARK  124  A    between atoms: _301  and  _302
REMARK  125  A    between atoms: _301  and  _304
REMARK  126  A    between atoms: _304  and  _305
REMARK  127  A    between atoms: _308  and  _310
REMARK  128  A    between atoms: _310  and  _311
REMARK  129  A    between atoms: _310  and  _313
REMARK  130  A    between atoms: _313  and  _314
REMARK  131  A    between atoms: _317  and  _319
REMARK  132  A    between atoms: _319  and  _320
REMARK  133  A    between atoms: _319  and  _322
REMARK  134  A    between atoms: _322  and  _323
REMARK  135  A    between atoms: _326  and  _328
REMARK  136  A    between atoms: _328  and  _329
REMARK  137  A    between atoms: _331  and  _333
REMARK  138  A    between atoms: _333  and  _334
REMARK  139  A    between atoms: _337  and  _339
REMARK  140  A    between atoms: _339  and  _340
REMARK  141  A    between atoms: _339  and  _342
REMARK  142  A    between atoms: _342  and  _343
REMARK  143  A    between atoms: _346  and  _348
REMARK  144  A    between atoms: _348  and  _349
REMARK  145  A    between atoms: _348  and  _351
REMARK  146  A    between atoms: _351  and  _352
REMARK  147  A    between atoms: _355  and  _357
REMARK  148  A    between atoms: _357  and  _358
REMARK  149  A    between atoms: _357  and  _360
REMARK  150  A    between atoms: _360  and  _361
REMARK  151  A    between atoms: _364  and  _366
REMARK  152  A    between atoms: _366  and  _367
REMARK  153  A    between atoms: _366  and  _369
REMARK  154  A    between atoms: _372  and  _374
REMARK  155  A    between atoms: _374  and  _375
REMARK  156  A    between atoms: _374  and  _377
REMARK  157  A    between atoms: _377  and  _378
REMARK  158  A    between atoms: _378  and  _379
REMARK  159  A    between atoms: _379  and  _380
REMARK  160  A    between atoms: _380  and  _381
REMARK  161  A    between atoms: _385  and  _387
REMARK  162  A    between atoms: _387  and  _388
REMARK  163  A    between atoms: _387  and  _390
REMARK  164  A    between atoms: _390  and  _391
REMARK  165  A    between atoms: _394  and  _396
REMARK  166  A    between atoms: _396  and  _397
REMARK  167  A    between atoms: _399  and  _401
REMARK  168  A    between atoms: _401  and  _402
REMARK  169  A    between atoms: _404  and  _406
REMARK  170  A    between atoms: _406  and  _407
REMARK  171  A    between atoms: _406  and  _409
REMARK  172  A    between atoms: _409  and  _410
REMARK  173  A    between atoms: _413  and  _415
REMARK  174  A    between atoms: _415  and  _416
REMARK  175  A    between atoms: _418  and  _420
REMARK  176  A    between atoms: _420  and  _421
REMARK  177  A    between atoms: _423  and  _425
REMARK  178  A    between atoms: _425  and  _426
REMARK  179  A    between atoms: _425  and  _428
REMARK  180  A    between atoms: _428  and  _429
REMARK  181  A    between atoms: _435  and  _437
REMARK  182  A    between atoms: _437  and  _438
REMARK  183  A    between atoms: _437  and  _440
REMARK  184  A    between atoms: _440  and  _441
REMARK  185  A    between atoms: _444  and  _446
REMARK  186  A    between atoms: _446  and  _447
REMARK  187  A    between atoms: _446  and  _449
REMARK  188  A    between atoms: _452  and  _454
REMARK  189  A    between atoms: _454  and  _455
REMARK  190  A    between atoms: _454  and  _457
REMARK  191  A    between atoms: _457  and  _458
REMARK  192  A    between atoms: _461  and  _463
REMARK  193  A    between atoms: _463  and  _464
REMARK  194  A    between atoms: _463  and  _466
REMARK  195  A    between atoms: _466  and  _467
REMARK  196  A    between atoms: _471  and  _472
REMARK  197  A    between atoms: _477  and  _479
REMARK  198  A    between atoms: _479  and  _480
REMARK  199  A    between atoms: _479  and  _482
REMARK  200  A    between atoms: _485  and  _487
REMARK  201  A    between atoms: _487  and  _488
REMARK  202  A    between atoms: _487  and  _490
REMARK  203  A    between atoms: _490  and  _491
REMARK  204  A    between atoms: _494  and  _496
REMARK  205  A    between atoms: _496  and  _497
REMARK  206  A    between atoms: _496  and  _499
REMARK  207  A    between atoms: _499  and  _500
REMARK  208  A    between atoms: _503  and  _505
REMARK  209  A    between atoms: _505  and  _506
REMARK  210  A    between atoms: _508  and  _510
REMARK  211  A    between atoms: _510  and  _511
REMARK  212  A    between atoms: _510  and  _513
REMARK  213  A    between atoms: _513  and  _514
REMARK  214  A    between atoms: _514  and  _515
REMARK  215  A    between atoms: _515  and  _516
REMARK  216  A    between atoms: _525  and  _527
REMARK  217  A    between atoms: _527  and  _528
REMARK  218  A    between atoms: _527  and  _530
REMARK  219  A    between atoms: _530  and  _531
REMARK                            x       y       z     vdW  Elec       q    Type
REMARK                         _______ _______ _______ _____ _____    ______ ____
ROOT
ATOM      1  C   THR A   1      -2.590  -8.024  13.368  0.00  0.00    +0.244 C 
ATOM      2  O   THR A   1      -3.466  -8.685  13.888  0.00  0.00    -0.273 OA
ATOM      3  N   PRO A   2      -1.308  -8.177  13.663  0.00  0.00    -0.272 N 
ATOM      4  CA  PRO A   2      -0.896  -9.040  14.769  0.00  0.00    +0.152 C 
ATOM      5  CB  PRO A   2       0.627  -8.940  14.707  0.00  0.00    +0.031 C 
ATOM      6  CG  PRO A   2       0.941  -7.625  14.022  0.00  0.00    +0.024 C 
ATOM      7  CD  PRO A   2      -0.168  -7.550  13.003  0.00  0.00    +0.094 C 
ENDROOT
BRANCH   4   8
ATOM      8  C   PRO A   2      -1.435  -8.667  16.151  0.00  0.00    +0.241 C 
ATOM      9  O   PRO A   2      -1.631  -9.545  16.987  0.00  0.00    -0.273 OA
ATOM     10  N   VAL A   3      -1.652  -7.372  16.370  0.00  0.00    -0.298 N 
ATOM     11  H   VAL A   3      -1.485  -6.700  15.594  0.00  0.00    +0.150 HD
BRANCH  10  12
ATOM     12  CA  VAL A   3      -2.118  -6.853  17.663  0.00  0.00    +0.137 C 
BRANCH  12  13
ATOM     13  CB  VAL A   3      -0.863  -6.496  18.549  0.00  0.00    +0.026 C 
ATOM     14  CG2 VAL A   3      -1.228  -5.923  19.911  0.00  0.00    +0.002 C 
ATOM     15  CG1 VAL A   3       0.096  -5.506  17.912  0.00  0.00    +0.002 C 
ENDBRANCH  12  13
BRANCH  12  16
ATOM     16  C   VAL A   3      -3.017  -5.654  17.403  0.00  0.00    +0.227 C 
ATOM     17  O   VAL A   3      -2.839  -4.954  16.425  0.00  0.00    -0.286 OA
ENDBRANCH  12  16
ENDBRANCH  10  12
ENDBRANCH   4   8
BRANCH   1  18
ATOM     18  CA  THR A   1      -2.923  -6.951  12.350  0.00  0.00    +0.172 C 
BRANCH  18  19
ATOM     19  N   THR A   1      -4.013  -7.343  11.461  0.00  0.00    -0.236 NA
ATOM     20  H   THR A   1      -4.998  -7.191  11.757  0.00  0.00    +0.142 HD
ENDBRANCH  18  19
BRANCH  18  21
ATOM     21  CB  THR A   1      -3.317  -5.586  13.016  0.00  0.00    +0.135 C 
ATOM     22  CG2 THR A   1      -4.603  -5.623  13.802  0.00  0.00    +0.034 C 
BRANCH  21  23
ATOM     23  OG1 THR A   1      -2.229  -5.098  13.823  0.00  0.00    -0.383 OA
ATOM     24  HG1 THR A   1      -2.023  -5.758  14.531  0.00  0.00    +0.210 HD
ENDBRANCH  21  23
ENDBRANCH  18  21
ENDBRANCH   1  18
TORSDOF 8
REMARK  Name = ../refined-set-2016/1hpx/1hpx_pocket.pdb
REMARK  219 active torsions:
REMARK  status: ('A' for Active; 'I' for Inactive)
REMARK    1  A    between atoms: _1  and  _3
REMARK    2  A    between atoms: _3  and  _4
REMARK    3  A    between atoms: _3  and  _6
REMARK    4  A    between atoms: _6  and  _7
REMARK    5  A    between atoms: _7  and  _8
REMARK    6  A    between atoms: _8  and  _9
REMARK    7  A    between atoms: _18  and  _20
REMARK    8  A    between atoms: _20  and  _21
REMARK    9  A    between atoms: _20  and  _23
REMARK   10  A    between atoms: _23  and  _24
REMARK   11  A    between atoms: _27  and  _29
REMARK   12  A    between atoms: _29  and  _30
REMARK   13  A    between atoms: _29  and  _32
REMARK   14  A    between atoms: _32  and  _33
REMARK   15  A    between atoms: _36  and  _38
REMARK   16  A    between atoms: _38  and  _39
REMARK   17  A    between atoms: _38  and  _41
REMARK   18  A    between atoms: _41  and  _42
REMARK   19  A    between atoms: _45  and  _47
REMARK   20  A    between atoms: _47  and  _48
REMARK   21  A    between atoms: _47  and  _50
REMARK   22  A    between atoms: _50  and  _51
REMARK   23  A    between atoms: _54  and  _56
REMARK   24  A    between atoms: _56  and  _57
REMARK   25  A    between atoms: _59  and  _61
REMARK   26  A    between atoms: _61  and  _62
REMARK   27  A    between atoms: _65  and  _67
REMARK   28  A    between atoms: _67  and  _68
REMARK   29  A    between atoms: _67  and  _70
REMARK   30  A    between atoms: _70  and  _71
REMARK   31  A    between atoms: _74  and  _76
REMARK   32  A    between atoms: _76  and  _77
REMARK   33  A    between atoms: _76  and  _79
REMARK   34  A    between atoms: _79  and  _80
REMARK   35  A    between atoms: _83  and  _85
REMARK   36  A    between atoms: _85  and  _86
REMARK   37  A    between atoms: _85  and  _88
REMARK   38  A    between atoms: _88  and  _89
REMARK   39  A    between atoms: _92  and  _94
REMARK   40  A    between atoms: _94  and  _95
REMARK   41  A    between atoms: _94  and  _97
REMARK   42  A    between atoms: _100  and  _102
REMARK   43  A    between atoms: _102  and  _103
REMARK   44  A    between atoms: _102  and  _105
REMARK   45  A    between atoms: _105  and  _106
REMARK   46  A    between atoms: _106  and  _107
REMARK   47  A    between atoms: _107  and  _108
REMARK   48  A    between atoms: _108  and  _109
REMARK   49  A    between atoms: _113  and  _115
REMARK   50  A    between atoms: _115  and  _116
REMARK   51  A    between atoms: _115  and  _118
REMARK   52  A    between atoms: _118  and  _119
REMARK   53  A    between atoms: _119  and  _120
REMARK   54  A    between atoms: _122  and  _124
REMARK   55  A    between atoms: _124  and  _125
REMARK   56  A    between atoms: _124  and  _127
REMARK   57  A    between atoms: _127  and  _128
REMARK   58  A    between atoms: _131  and  _133
REMARK   59  A    between atoms: _133  and  _134
REMARK   60  A    between atoms: _136  and  _138
REMARK   61  A    between atoms: _138  and  _139
REMARK   62  A    between atoms: _141  and  _143
REMARK   63  A    between atoms: _143  and  _144
REMARK   64  A    between atoms: _143  and  _146
REMARK   65  A    between atoms: _146  and  _147
REMARK   66  A    between atoms: _150  and  _152
REMARK   67  A    between atoms: _152  and  _153
REMARK   68  A    between atoms: _155  and  _157
REMARK   69  A    between atoms: _157  and  _158
REMARK   70  A    between atoms: _160  and  _162
REMARK   71  A    between atoms: _162  and  _163
REMARK   72  A    between atoms: _162  and  _165
REMARK   73  A    between atoms: _165  and  _166
REMARK   74  A    between atoms: _172  and  _174
REMARK   75  A    between atoms: _174  and  _175
REMARK   76  A    between atoms: _174  and  _177
REMARK   77  A    between atoms: _177  and  _178
REMARK   78  A    between atoms: _181  and  _183
REMARK   79  A    between atoms: _183  and  _184
REMARK   80  A    between atoms: _183  and  _186
REMARK   81  A    between atoms: _189  and  _191
REMARK   82  A    between atoms: _191  and  _192
REMARK   83  A    between atoms: _191  and  _194
REMARK   84  A    between atoms: _194  and  _195
REMARK   85  A    between atoms: _198  and  _200
REMARK   86  A    between atoms: _200  and  _201
REMARK   87  A    between atoms: _200  and  _203
REMARK   88  A    between atoms: _203  and  _204
REMARK   89  A    between atoms: _208  and  _209
REMARK   90  A    between atoms: _214  and  _216
REMARK   91  A    between atoms: _216  and  _217
REMARK   92  A    between atoms: _216  and  _219
REMARK   93  A    between atoms: _222  and  _224
REMARK   94  A    between atoms: _224  and  _225
REMARK   95  A    between atoms: _224  and  _227
REMARK   96  A    between atoms: _227  and  _228
REMARK   97  A    between atoms: _233  and  _235
REMARK   98  A    between atoms: _235  and  _236
REMARK   99  A    between atoms: _235  and  _238
REMARK  100  A    between atoms: _238  and  _239
REMARK  101  A    between atoms: _242  and  _244
REMARK  102  A    between atoms: _244  and  _245
REMARK  103  A    between atoms: _244  and  _247
REMARK  104  A    between atoms: _247  and  _248
REMARK  105  A    between atoms: _251  and  _253
REMARK  106  A    between atoms: _253  and  _254
REMARK  107  A    between atoms: _256  and  _258
REMARK  108  A    between atoms: _258  and  _259
REMARK  109  A    between atoms: _258  and  _261
REMARK  110  A    between atoms: _261  and  _262
REMARK  111  A    between atoms: _262  and  _263
REMARK  112  A    between atoms: _263  and  _264
REMARK  113  A    between atoms: _273  and  _275
REMARK  114  A    between atoms: _275  and  _276
REMARK  115  A    between atoms: _275  and  _278
REMARK  116  A    between atoms: _278  and  _279
REMARK  117  A    between atoms: _279  and  _280
REMARK  118  A    between atoms: _280  and  _281
REMARK  119  A    between atoms: _290  and  _292
REMARK  120  A    between atoms: _292  and  _293
REMARK  121  A    between atoms: _292  and  _295
REMARK  122  A    between atoms: _295  and  _296
REMARK  123  A    between atoms: _299  and  _301
REMARK  124  A    between atoms: _301  and  _302
REMARK  125  A    between atoms: _301  and  _304
REMARK  126  A    between atoms: _304  and  _305
REMARK  127  A    between atoms: _308  and  _310
REMARK  128  A    between atoms: _310  and  _311
REMARK  129  A    between atoms: _310  and  _313
REMARK  130  A    between atoms: _313  and  _314
REMARK  131  A    between atoms: _317  and  _319
REMARK  132  A    between atoms: _319  and  _320
REMARK  133  A    between atoms: _319  and  _322
REMARK  134  A    between atoms: _322  and  _323
REMARK  135  A    between atoms: _326  and  _328
REMARK  136  A    between atoms: _328  and  _329
REMARK  137  A    between atoms: _331  and  _333
REMARK  138  A    between atoms: _333  and  _334
REMARK  139  A    between atoms: _337  and  _339
REMARK  140  A    between atoms: _339  and  _340
REMARK  141  A    between atoms: _339  and  _342
REMARK  142  A    between atoms: _342  and  _343
REMARK  143  A    between atoms: _346  and  _348
REMARK  144  A    between atoms: _348  and  _349
REMARK  145  A    between atoms: _348  and  _351
REMARK  146  A    between atoms: _351  and  _352
REMARK  147  A    between atoms: _355  and  _357
REMARK  148  A    between atoms: _357  and  _358
REMARK  149  A    between atoms: _357  and  _360
REMARK  150  A    between atoms: _360  and  _361
REMARK  151  A    between atoms: _364  and  _366
REMARK  152  A    between atoms: _366  and  _367
REMARK  153  A    between atoms: _366  and  _369
REMARK  154  A    between atoms: _372  and  _374
REMARK  155  A    between atoms: _374  and  _375
REMARK  156  A    between atoms: _374  and  _377
REMARK  157  A    between atoms: _377  and  _378
REMARK  158  A    between atoms: _378  and  _379
REMARK  159  A    between atoms: _379  and  _380
REMARK  160  A    between atoms: _380  and  _381
REMARK  161  A    between atoms: _385  and  _387
REMARK  162  A    between atoms: _387  and  _388
REMARK  163  A    between atoms: _387  and  _390
REMARK  164  A    between atoms: _390  and  _391
REMARK  165  A    between atoms: _394  and  _396
REMARK  166  A    between atoms: _396  and  _397
REMARK  167  A    between atoms: _399  and  _401
REMARK  168  A    between atoms: _401  and  _402
REMARK  169  A    between atoms: _404  and  _406
REMARK  170  A    between atoms: _406  and  _407
REMARK  171  A    between atoms: _406  and  _409
REMARK  172  A    between atoms: _409  and  _410
REMARK  173  A    between atoms: _413  and  _415
REMARK  174  A    between atoms: _415  and  _416
REMARK  175  A    between atoms: _418  and  _420
REMARK  176  A    between atoms: _420  and  _421
REMARK  177  A    between atoms: _423  and  _425
REMARK  178  A    between atoms: _425  and  _426
REMARK  179  A    between atoms: _425  and  _428
REMARK  180  A    between atoms: _428  and  _429
REMARK  181  A    between atoms: _435  and  _437
REMARK  182  A    between atoms: _437  and  _438
REMARK  183  A    between atoms: _437  and  _440
REMARK  184  A    between atoms: _440  and  _441
REMARK  185  A    between atoms: _444  and  _446
REMARK  186  A    between atoms: _446  and  _447
REMARK  187  A    between atoms: _446  and  _449
REMARK  188  A    between atoms: _452  and  _454
REMARK  189  A    between atoms: _454  and  _455
REMARK  190  A    between atoms: _454  and  _457
REMARK  191  A    between atoms: _457  and  _458
REMARK  192  A    between atoms: _461  and  _463
REMARK  193  A    between atoms: _463  and  _464
REMARK  194  A    between atoms: _463  and  _466
REMARK  195  A    between atoms: _466  and  _467
REMARK  196  A    between atoms: _471  and  _472
REMARK  197  A    between atoms: _477  and  _479
REMARK  198  A    between atoms: _479  and  _480
REMARK  199  A    between atoms: _479  and  _482
REMARK  200  A    between atoms: _485  and  _487
REMARK  201  A    between atoms: _487  and  _488
REMARK  202  A    between atoms: _487  and  _490
REMARK  203  A    between atoms: _490  and  _491
REMARK  204  A    between atoms: _494  and  _496
REMARK  205  A    between atoms: _496  and  _497
REMARK  206  A    between atoms: _496  and  _499
REMARK  207  A    between atoms: _499  and  _500
REMARK  208  A    between atoms: _503  and  _505
REMARK  209  A    between atoms: _505  and  _506
REMARK  210  A    between atoms: _508  and  _510
REMARK  211  A    between atoms: _510  and  _511
REMARK  212  A    between atoms: _510  and  _513
REMARK  213  A    between atoms: _513  and  _514
REMARK  214  A    between atoms: _514  and  _515
REMARK  215  A    between atoms: _515  and  _516
REMARK  216  A    between atoms: _525  and  _527
REMARK  217  A    between atoms: _527  and  _528
REMARK  218  A    between atoms: _527  and  _530
REMARK  219  A    between atoms: _530  and  _531
REMARK                            x       y       z     vdW  Elec       q    Type
REMARK                         _______ _______ _______ _____ _____    ______ ____
ROOT
ATOM      1  CA  ARG A   4      -0.760   8.574  17.843  0.00  0.00    +0.149 C 
ENDROOT
BRANCH   1   4
ATOM      2  C   GLY A   3      -1.793   6.394  17.902  0.00  0.00    +0.243 C 
ATOM      3  O   GLY A   3      -2.729   6.814  18.558  0.00  0.00    -0.273 OA
ATOM      4  N   ARG A   4      -0.818   7.163  17.464  0.00  0.00    -0.297 N 
ATOM      5  H   ARG A   4      -0.084   6.764  16.844  0.00  0.00    +0.150 HD
BRANCH   2   6
ATOM      6  CA  GLY A   3      -1.707   4.961  17.500  0.00  0.00    +0.176 C 
BRANCH   6   9
ATOM      7  C   ILE A   2      -2.715   3.444  19.045  0.00  0.00    +0.241 C 
ATOM      8  O   ILE A   2      -1.688   3.437  19.708  0.00  0.00    -0.273 OA
ATOM      9  N   GLY A   3      -2.872   4.222  17.970  0.00  0.00    -0.295 N 
ATOM     10  H   GLY A   3      -3.790   4.297  17.487  0.00  0.00    +0.150 HD
BRANCH   7  11
ATOM     11  CA  ILE A   2      -3.860   2.478  19.415  0.00  0.00    +0.148 C 
BRANCH  11  13
ATOM     12  C   ILE A   1      -3.564   0.372  18.273  0.00  0.00    +0.238 C 
ATOM     13  N   ILE A   2      -3.362   1.097  19.366  0.00  0.00    -0.297 N 
ATOM     14  H   ILE A   2      -2.856   0.692  20.179  0.00  0.00    +0.150 HD
ATOM     15  O   ILE A   1      -4.370   0.661  17.400  0.00  0.00    -0.274 OA
BRANCH  12  16
ATOM     16  CA  ILE A   1      -2.725  -0.866  18.127  0.00  0.00    +0.145 C 
BRANCH  16  17
ATOM     17  N   ILE A   1      -3.626  -1.997  17.906  0.00  0.00    -0.238 NA
ATOM     18  H   ILE A   1      -4.139  -2.018  17.002  0.00  0.00    +0.142 HD
ENDBRANCH  16  17
BRANCH  16  19
ATOM     19  CB  ILE A   1      -1.916  -0.773  16.843  0.00  0.00    +0.025 C 
ATOM     20  CG2 ILE A   1      -1.202   0.535  16.631  0.00  0.00    +0.002 C 
BRANCH  19  21
ATOM     21  CG1 ILE A   1      -0.885  -1.855  16.805  0.00  0.00    +0.002 C 
ATOM     22  CD1 ILE A   1      -0.336  -1.953  15.379  0.00  0.00    +0.000 C 
ENDBRANCH  19  21
ENDBRANCH  16  19
ENDBRANCH  12  16
ENDBRANCH  11  13
BRANCH  11  23
ATOM     23  CB  ILE A   2      -4.361   2.785  20.834  0.00  0.00    +0.027 C 
ATOM     24  CG2 ILE A   2      -4.909   4.214  20.890  0.00  0.00    +0.002 C 
BRANCH  23  25
ATOM     25  CG1 ILE A   2      -5.394   1.819  21.407  0.00  0.00    +0.002 C 
ATOM     26  CD1 ILE A   2      -6.738   1.815  20.643  0.00  0.00    +0.000 C 
ENDBRANCH  23  25
ENDBRANCH  11  23
ENDBRANCH   7  11
ENDBRANCH   6   9
ENDBRANCH   2   6
ENDBRANCH   1   4
BRANCH   1  27
ATOM     27  C   ARG A   4      -1.921   9.442  17.469  0.00  0.00    +0.241 C 
ATOM     28  O   ARG A   4      -2.183  10.427  18.141  0.00  0.00    -0.273 OA
ATOM     29  N   ASN A   5      -2.657   9.047  16.444  0.00  0.00    -0.298 N 
ATOM     30  H   ASN A   5      -2.371   8.228  15.870  0.00  0.00    +0.150 HD
BRANCH  29  31
ATOM     31  CA  ASN A   5      -3.871   9.778  16.136  0.00  0.00    +0.146 C 
BRANCH  31  32
ATOM     32  C   ASN A   5      -4.877   9.797  17.256  0.00  0.00    +0.227 C 
ATOM     33  O   ASN A   5      -5.602  10.770  17.389  0.00  0.00    -0.286 OA
ENDBRANCH  31  32
BRANCH  31  34
ATOM     34  CB  ASN A   5      -4.566   9.298  14.840  0.00  0.00    +0.112 C 
BRANCH  34  35
ATOM     35  CG  ASN A   5      -5.260   7.946  14.970  0.00  0.00    +0.222 C 
ATOM     36  OD1 ASN A   5      -4.671   6.980  15.418  0.00  0.00    -0.275 OA
ATOM     37  ND2 ASN A   5      -6.527   7.900  14.623  0.00  0.00    -0.329 N 
ATOM     38 HD21 ASN A   5      -7.063   7.015  14.728  0.00  0.00    +0.145 HD
ATOM     39 HD22 ASN A   5      -6.993   8.749  14.244  0.00  0.00    +0.145 HD
ENDBRANCH  34  35
ENDBRANCH  31  34
ENDBRANCH  29  31
ENDBRANCH   1  27
BRANCH   1  40
ATOM     40  CB  ARG A   4       0.478   9.204  17.317  0.00  0.00    +0.033 C 
BRANCH  40  41
ATOM     41  CG  ARG A   4       1.759   8.657  17.907  0.00  0.00    +0.045 C 
BRANCH  41  42
ATOM     42  CD  ARG A   4       2.917   9.507  17.437  0.00  0.00    +0.174 C 
BRANCH  42  43
ATOM     43  NE  ARG A   4       3.090   9.433  15.988  0.00  0.00    -0.265 N 
ATOM     44  HE  ARG A   4       3.599   8.612  15.602  0.00  0.00    +0.259 HD
ATOM     45  CZ  ARG A   4       2.640  10.346  15.127  0.00  0.00    +0.342 C 
ATOM     46  NH2 ARG A   4       2.067  11.484  15.558  0.00  0.00    -0.292 N 
ATOM     47 HH21 ARG A   4       1.969  11.663  16.578  0.00  0.00    +0.255 HD
ATOM     48 HH22 ARG A   4       1.722  12.185  14.871  0.00  0.00    +0.255 HD
ATOM     49  NH1 ARG A   4       2.743  10.094  13.830  0.00  0.00    -0.292 N 
ATOM     50 HH11 ARG A   4       3.167   9.201  13.506  0.00  0.00    +0.255 HD
ATOM     51 HH12 ARG A   4       2.400  10.789  13.136  0.00  0.00    +0.255 HD
ENDBRANCH  42  43
ENDBRANCH  41  42
ENDBRANCH  40  41
ENDBRANCH   1  40
TORSDOF 20
REMARK  Name = ../refined-set-2016/1hpx/1hpx_pocket.pdb
REMARK  219 active torsions:
REMARK  status: ('A' for Active; 'I' for Inactive)
REMARK    1  A    between atoms: _1  and  _3
REMARK    2  A    between atoms: _3  and  _4
REMARK    3  A    between atoms: _3  and  _6
REMARK    4  A    between atoms: _6  and  _7
REMARK    5  A    between atoms: _7  and  _8
REMARK    6  A    between atoms: _8  and  _9
REMARK    7  A    between atoms: _18  and  _20
REMARK    8  A    between atoms: _20  and  _21
REMARK    9  A    between atoms: _20  and  _23
REMARK   10  A    between atoms: _23  and  _24
REMARK   11  A    between atoms: _27  and  _29
REMARK   12  A    between atoms: _29  and  _30
REMARK   13  A    between atoms: _29  and  _32
REMARK   14  A    between atoms: _32  and  _33
REMARK   15  A    between atoms: _36  and  _38
REMARK   16  A    between atoms: _38  and  _39
REMARK   17  A    between atoms: _38  and  _41
REMARK   18  A    between atoms: _41  and  _42
REMARK   19  A    between atoms: _45  and  _47
REMARK   20  A    between atoms: _47  and  _48
REMARK   21  A    between atoms: _47  and  _50
REMARK   22  A    between atoms: _50  and  _51
REMARK   23  A    between atoms: _54  and  _56
REMARK   24  A    between atoms: _56  and  _57
REMARK   25  A    between atoms: _59  and  _61
REMARK   26  A    between atoms: _61  and  _62
REMARK   27  A    between atoms: _65  and  _67
REMARK   28  A    between atoms: _67  and  _68
REMARK   29  A    between atoms: _67  and  _70
REMARK   30  A    between atoms: _70  and  _71
REMARK   31  A    between atoms: _74  and  _76
REMARK   32  A    between atoms: _76  and  _77
REMARK   33  A    between atoms: _76  and  _79
REMARK   34  A    between atoms: _79  and  _80
REMARK   35  A    between atoms: _83  and  _85
REMARK   36  A    between atoms: _85  and  _86
REMARK   37  A    between atoms: _85  and  _88
REMARK   38  A    between atoms: _88  and  _89
REMARK   39  A    between atoms: _92  and  _94
REMARK   40  A    between atoms: _94  and  _95
REMARK   41  A    between atoms: _94  and  _97
REMARK   42  A    between atoms: _100  and  _102
REMARK   43  A    between atoms: _102  and  _103
REMARK   44  A    between atoms: _102  and  _105
REMARK   45  A    between atoms: _105  and  _106
REMARK   46  A    between atoms: _106  and  _107
REMARK   47  A    between atoms: _107  and  _108
REMARK   48  A    between atoms: _108  and  _109
REMARK   49  A    between atoms: _113  and  _115
REMARK   50  A    between atoms: _115  and  _116
REMARK   51  A    between atoms: _115  and  _118
REMARK   52  A    between atoms: _118  and  _119
REMARK   53  A    between atoms: _119  and  _120
REMARK   54  A    between atoms: _122  and  _124
REMARK   55  A    between atoms: _124  and  _125
REMARK   56  A    between atoms: _124  and  _127
REMARK   57  A    between atoms: _127  and  _128
REMARK   58  A    between atoms: _131  and  _133
REMARK   59  A    between atoms: _133  and  _134
REMARK   60  A    between atoms: _136  and  _138
REMARK   61  A    between atoms: _138  and  _139
REMARK   62  A    between atoms: _141  and  _143
REMARK   63  A    between atoms: _143  and  _144
REMARK   64  A    between atoms: _143  and  _146
REMARK   65  A    between atoms: _146  and  _147
REMARK   66  A    between atoms: _150  and  _152
REMARK   67  A    between atoms: _152  and  _153
REMARK   68  A    between atoms: _155  and  _157
REMARK   69  A    between atoms: _157  and  _158
REMARK   70  A    between atoms: _160  and  _162
REMARK   71  A    between atoms: _162  and  _163
REMARK   72  A    between atoms: _162  and  _165
REMARK   73  A    between atoms: _165  and  _166
REMARK   74  A    between atoms: _172  and  _174
REMARK   75  A    between atoms: _174  and  _175
REMARK   76  A    between atoms: _174  and  _177
REMARK   77  A    between atoms: _177  and  _178
REMARK   78  A    between atoms: _181  and  _183
REMARK   79  A    between atoms: _183  and  _184
REMARK   80  A    between atoms: _183  and  _186
REMARK   81  A    between atoms: _189  and  _191
REMARK   82  A    between atoms: _191  and  _192
REMARK   83  A    between atoms: _191  and  _194
REMARK   84  A    between atoms: _194  and  _195
REMARK   85  A    between atoms: _198  and  _200
REMARK   86  A    between atoms: _200  and  _201
REMARK   87  A    between atoms: _200  and  _203
REMARK   88  A    between atoms: _203  and  _204
REMARK   89  A    between atoms: _208  and  _209
REMARK   90  A    between atoms: _214  and  _216
REMARK   91  A    between atoms: _216  and  _217
REMARK   92  A    between atoms: _216  and  _219
REMARK   93  A    between atoms: _222  and  _224
REMARK   94  A    between atoms: _224  and  _225
REMARK   95  A    between atoms: _224  and  _227
REMARK   96  A    between atoms: _227  and  _228
REMARK   97  A    between atoms: _233  and  _235
REMARK   98  A    between atoms: _235  and  _236
REMARK   99  A    between atoms: _235  and  _238
REMARK  100  A    between atoms: _238  and  _239
REMARK  101  A    between atoms: _242  and  _244
REMARK  102  A    between atoms: _244  and  _245
REMARK  103  A    between atoms: _244  and  _247
REMARK  104  A    between atoms: _247  and  _248
REMARK  105  A    between atoms: _251  and  _253
REMARK  106  A    between atoms: _253  and  _254
REMARK  107  A    between atoms: _256  and  _258
REMARK  108  A    between atoms: _258  and  _259
REMARK  109  A    between atoms: _258  and  _261
REMARK  110  A    between atoms: _261  and  _262
REMARK  111  A    between atoms: _262  and  _263
REMARK  112  A    between atoms: _263  and  _264
REMARK  113  A    between atoms: _273  and  _275
REMARK  114  A    between atoms: _275  and  _276
REMARK  115  A    between atoms: _275  and  _278
REMARK  116  A    between atoms: _278  and  _279
REMARK  117  A    between atoms: _279  and  _280
REMARK  118  A    between atoms: _280  and  _281
REMARK  119  A    between atoms: _290  and  _292
REMARK  120  A    between atoms: _292  and  _293
REMARK  121  A    between atoms: _292  and  _295
REMARK  122  A    between atoms: _295  and  _296
REMARK  123  A    between atoms: _299  and  _301
REMARK  124  A    between atoms: _301  and  _302
REMARK  125  A    between atoms: _301  and  _304
REMARK  126  A    between atoms: _304  and  _305
REMARK  127  A    between atoms: _308  and  _310
REMARK  128  A    between atoms: _310  and  _311
REMARK  129  A    between atoms: _310  and  _313
REMARK  130  A    between atoms: _313  and  _314
REMARK  131  A    between atoms: _317  and  _319
REMARK  132  A    between atoms: _319  and  _320
REMARK  133  A    between atoms: _319  and  _322
REMARK  134  A    between atoms: _322  and  _323
REMARK  135  A    between atoms: _326  and  _328
REMARK  136  A    between atoms: _328  and  _329
REMARK  137  A    between atoms: _331  and  _333
REMARK  138  A    between atoms: _333  and  _334
REMARK  139  A    between atoms: _337  and  _339
REMARK  140  A    between atoms: _339  and  _340
REMARK  141  A    between atoms: _339  and  _342
REMARK  142  A    between atoms: _342  and  _343
REMARK  143  A    between atoms: _346  and  _348
REMARK  144  A    between atoms: _348  and  _349
REMARK  145  A    between atoms: _348  and  _351
REMARK  146  A    between atoms: _351  and  _352
REMARK  147  A    between atoms: _355  and  _357
REMARK  148  A    between atoms: _357  and  _358
REMARK  149  A    between atoms: _357  and  _360
REMARK  150  A    between atoms: _360  and  _361
REMARK  151  A    between atoms: _364  and  _366
REMARK  152  A    between atoms: _366  and  _367
REMARK  153  A    between atoms: _366  and  _369
REMARK  154  A    between atoms: _372  and  _374
REMARK  155  A    between atoms: _374  and  _375
REMARK  156  A    between atoms: _374  and  _377
REMARK  157  A    between atoms: _377  and  _378
REMARK  158  A    between atoms: _378  and  _379
REMARK  159  A    between atoms: _379  and  _380
REMARK  160  A    between atoms: _380  and  _381
REMARK  161  A    between atoms: _385  and  _387
REMARK  162  A    between atoms: _387  and  _388
REMARK  163  A    between atoms: _387  and  _390
REMARK  164  A    between atoms: _390  and  _391
REMARK  165  A    between atoms: _394  and  _396
REMARK  166  A    between atoms: _396  and  _397
REMARK  167  A    between atoms: _399  and  _401
REMARK  168  A    between atoms: _401  and  _402
REMARK  169  A    between atoms: _404  and  _406
REMARK  170  A    between atoms: _406  and  _407
REMARK  171  A    between atoms: _406  and  _409
REMARK  172  A    between atoms: _409  and  _410
REMARK  173  A    between atoms: _413  and  _415
REMARK  174  A    between atoms: _415  and  _416
REMARK  175  A    between atoms: _418  and  _420
REMARK  176  A    between atoms: _420  and  _421
REMARK  177  A    between atoms: _423  and  _425
REMARK  178  A    between atoms: _425  and  _426
REMARK  179  A    between atoms: _425  and  _428
REMARK  180  A    between atoms: _428  and  _429
REMARK  181  A    between atoms: _435  and  _437
REMARK  182  A    between atoms: _437  and  _438
REMARK  183  A    between atoms: _437  and  _440
REMARK  184  A    between atoms: _440  and  _441
REMARK  185  A    between atoms: _444  and  _446
REMARK  186  A    between atoms: _446  and  _447
REMARK  187  A    between atoms: _446  and  _449
REMARK  188  A    between atoms: _452  and  _454
REMARK  189  A    between atoms: _454  and  _455
REMARK  190  A    between atoms: _454  and  _457
REMARK  191  A    between atoms: _457  and  _458
REMARK  192  A    between atoms: _461  and  _463
REMARK  193  A    between atoms: _463  and  _464
REMARK  194  A    between atoms: _463  and  _466
REMARK  195  A    between atoms: _466  and  _467
REMARK  196  A    between atoms: _471  and  _472
REMARK  197  A    between atoms: _477  and  _479
REMARK  198  A    between atoms: _479  and  _480
REMARK  199  A    between atoms: _479  and  _482
REMARK  200  A    between atoms: _485  and  _487
REMARK  201  A    between atoms: _487  and  _488
REMARK  202  A    between atoms: _487  and  _490
REMARK  203  A    between atoms: _490  and  _491
REMARK  204  A    between atoms: _494  and  _496
REMARK  205  A    between atoms: _496  and  _497
REMARK  206  A    between atoms: _496  and  _499
REMARK  207  A    between atoms: _499  and  _500
REMARK  208  A    between atoms: _503  and  _505
REMARK  209  A    between atoms: _505  and  _506
REMARK  210  A    between atoms: _508  and  _510
REMARK  211  A    between atoms: _510  and  _511
REMARK  212  A    between atoms: _510  and  _513
REMARK  213  A    between atoms: _513  and  _514
REMARK  214  A    between atoms: _514  and  _515
REMARK  215  A    between atoms: _515  and  _516
REMARK  216  A    between atoms: _525  and  _527
REMARK  217  A    between atoms: _527  and  _528
REMARK  218  A    between atoms: _527  and  _530
REMARK  219  A    between atoms: _530  and  _531
REMARK                            x       y       z     vdW  Elec       q    Type
REMARK                         _______ _______ _______ _____ _____    ______ ____
ROOT
ATOM      1  O   HOH     1       5.168  -3.550  23.425  0.00  0.00    +0.000 OA
ENDROOT
TORSDOF 0
REMARK  Name = ../refined-set-2016/1hpx/1hpx_pocket.pdb
REMARK  219 active torsions:
REMARK  status: ('A' for Active; 'I' for Inactive)
REMARK    1  A    between atoms: _1  and  _3
REMARK    2  A    between atoms: _3  and  _4
REMARK    3  A    between atoms: _3  and  _6
REMARK    4  A    between atoms: _6  and  _7
REMARK    5  A    between atoms: _7  and  _8
REMARK    6  A    between atoms: _8  and  _9
REMARK    7  A    between atoms: _18  and  _20
REMARK    8  A    between atoms: _20  and  _21
REMARK    9  A    between atoms: _20  and  _23
REMARK   10  A    between atoms: _23  and  _24
REMARK   11  A    between atoms: _27  and  _29
REMARK   12  A    between atoms: _29  and  _30
REMARK   13  A    between atoms: _29  and  _32
REMARK   14  A    between atoms: _32  and  _33
REMARK   15  A    between atoms: _36  and  _38
REMARK   16  A    between atoms: _38  and  _39
REMARK   17  A    between atoms: _38  and  _41
REMARK   18  A    between atoms: _41  and  _42
REMARK   19  A    between atoms: _45  and  _47
REMARK   20  A    between atoms: _47  and  _48
REMARK   21  A    between atoms: _47  and  _50
REMARK   22  A    between atoms: _50  and  _51
REMARK   23  A    between atoms: _54  and  _56
REMARK   24  A    between atoms: _56  and  _57
REMARK   25  A    between atoms: _59  and  _61
REMARK   26  A    between atoms: _61  and  _62
REMARK   27  A    between atoms: _65  and  _67
REMARK   28  A    between atoms: _67  and  _68
REMARK   29  A    between atoms: _67  and  _70
REMARK   30  A    between atoms: _70  and  _71
REMARK   31  A    between atoms: _74  and  _76
REMARK   32  A    between atoms: _76  and  _77
REMARK   33  A    between atoms: _76  and  _79
REMARK   34  A    between atoms: _79  and  _80
REMARK   35  A    between atoms: _83  and  _85
REMARK   36  A    between atoms: _85  and  _86
REMARK   37  A    between atoms: _85  and  _88
REMARK   38  A    between atoms: _88  and  _89
REMARK   39  A    between atoms: _92  and  _94
REMARK   40  A    between atoms: _94  and  _95
REMARK   41  A    between atoms: _94  and  _97
REMARK   42  A    between atoms: _100  and  _102
REMARK   43  A    between atoms: _102  and  _103
REMARK   44  A    between atoms: _102  and  _105
REMARK   45  A    between atoms: _105  and  _106
REMARK   46  A    between atoms: _106  and  _107
REMARK   47  A    between atoms: _107  and  _108
REMARK   48  A    between atoms: _108  and  _109
REMARK   49  A    between atoms: _113  and  _115
REMARK   50  A    between atoms: _115  and  _116
REMARK   51  A    between atoms: _115  and  _118
REMARK   52  A    between atoms: _118  and  _119
REMARK   53  A    between atoms: _119  and  _120
REMARK   54  A    between atoms: _122  and  _124
REMARK   55  A    between atoms: _124  and  _125
REMARK   56  A    between atoms: _124  and  _127
REMARK   57  A    between atoms: _127  and  _128
REMARK   58  A    between atoms: _131  and  _133
REMARK   59  A    between atoms: _133  and  _134
REMARK   60  A    between atoms: _136  and  _138
REMARK   61  A    between atoms: _138  and  _139
REMARK   62  A    between atoms: _141  and  _143
REMARK   63  A    between atoms: _143  and  _144
REMARK   64  A    between atoms: _143  and  _146
REMARK   65  A    between atoms: _146  and  _147
REMARK   66  A    between atoms: _150  and  _152
REMARK   67  A    between atoms: _152  and  _153
REMARK   68  A    between atoms: _155  and  _157
REMARK   69  A    between atoms: _157  and  _158
REMARK   70  A    between atoms: _160  and  _162
REMARK   71  A    between atoms: _162  and  _163
REMARK   72  A    between atoms: _162  and  _165
REMARK   73  A    between atoms: _165  and  _166
REMARK   74  A    between atoms: _172  and  _174
REMARK   75  A    between atoms: _174  and  _175
REMARK   76  A    between atoms: _174  and  _177
REMARK   77  A    between atoms: _177  and  _178
REMARK   78  A    between atoms: _181  and  _183
REMARK   79  A    between atoms: _183  and  _184
REMARK   80  A    between atoms: _183  and  _186
REMARK   81  A    between atoms: _189  and  _191
REMARK   82  A    between atoms: _191  and  _192
REMARK   83  A    between atoms: _191  and  _194
REMARK   84  A    between atoms: _194  and  _195
REMARK   85  A    between atoms: _198  and  _200
REMARK   86  A    between atoms: _200  and  _201
REMARK   87  A    between atoms: _200  and  _203
REMARK   88  A    between atoms: _203  and  _204
REMARK   89  A    between atoms: _208  and  _209
REMARK   90  A    between atoms: _214  and  _216
REMARK   91  A    between atoms: _216  and  _217
REMARK   92  A    between atoms: _216  and  _219
REMARK   93  A    between atoms: _222  and  _224
REMARK   94  A    between atoms: _224  and  _225
REMARK   95  A    between atoms: _224  and  _227
REMARK   96  A    between atoms: _227  and  _228
REMARK   97  A    between atoms: _233  and  _235
REMARK   98  A    between atoms: _235  and  _236
REMARK   99  A    between atoms: _235  and  _238
REMARK  100  A    between atoms: _238  and  _239
REMARK  101  A    between atoms: _242  and  _244
REMARK  102  A    between atoms: _244  and  _245
REMARK  103  A    between atoms: _244  and  _247
REMARK  104  A    between atoms: _247  and  _248
REMARK  105  A    between atoms: _251  and  _253
REMARK  106  A    between atoms: _253  and  _254
REMARK  107  A    between atoms: _256  and  _258
REMARK  108  A    between atoms: _258  and  _259
REMARK  109  A    between atoms: _258  and  _261
REMARK  110  A    between atoms: _261  and  _262
REMARK  111  A    between atoms: _262  and  _263
REMARK  112  A    between atoms: _263  and  _264
REMARK  113  A    between atoms: _273  and  _275
REMARK  114  A    between atoms: _275  and  _276
REMARK  115  A    between atoms: _275  and  _278
REMARK  116  A    between atoms: _278  and  _279
REMARK  117  A    between atoms: _279  and  _280
REMARK  118  A    between atoms: _280  and  _281
REMARK  119  A    between atoms: _290  and  _292
REMARK  120  A    between atoms: _292  and  _293
REMARK  121  A    between atoms: _292  and  _295
REMARK  122  A    between atoms: _295  and  _296
REMARK  123  A    between atoms: _299  and  _301
REMARK  124  A    between atoms: _301  and  _302
REMARK  125  A    between atoms: _301  and  _304
REMARK  126  A    between atoms: _304  and  _305
REMARK  127  A    between atoms: _308  and  _310
REMARK  128  A    between atoms: _310  and  _311
REMARK  129  A    between atoms: _310  and  _313
REMARK  130  A    between atoms: _313  and  _314
REMARK  131  A    between atoms: _317  and  _319
REMARK  132  A    between atoms: _319  and  _320
REMARK  133  A    between atoms: _319  and  _322
REMARK  134  A    between atoms: _322  and  _323
REMARK  135  A    between atoms: _326  and  _328
REMARK  136  A    between atoms: _328  and  _329
REMARK  137  A    between atoms: _331  and  _333
REMARK  138  A    between atoms: _333  and  _334
REMARK  139  A    between atoms: _337  and  _339
REMARK  140  A    between atoms: _339  and  _340
REMARK  141  A    between atoms: _339  and  _342
REMARK  142  A    between atoms: _342  and  _343
REMARK  143  A    between atoms: _346  and  _348
REMARK  144  A    between atoms: _348  and  _349
REMARK  145  A    between atoms: _348  and  _351
REMARK  146  A    between atoms: _351  and  _352
REMARK  147  A    between atoms: _355  and  _357
REMARK  148  A    between atoms: _357  and  _358
REMARK  149  A    between atoms: _357  and  _360
REMARK  150  A    between atoms: _360  and  _361
REMARK  151  A    between atoms: _364  and  _366
REMARK  152  A    between atoms: _366  and  _367
REMARK  153  A    between atoms: _366  and  _369
REMARK  154  A    between atoms: _372  and  _374
REMARK  155  A    between atoms: _374  and  _375
REMARK  156  A    between atoms: _374  and  _377
REMARK  157  A    between atoms: _377  and  _378
REMARK  158  A    between atoms: _378  and  _379
REMARK  159  A    between atoms: _379  and  _380
REMARK  160  A    between atoms: _380  and  _381
REMARK  161  A    between atoms: _385  and  _387
REMARK  162  A    between atoms: _387  and  _388
REMARK  163  A    between atoms: _387  and  _390
REMARK  164  A    between atoms: _390  and  _391
REMARK  165  A    between atoms: _394  and  _396
REMARK  166  A    between atoms: _396  and  _397
REMARK  167  A    between atoms: _399  and  _401
REMARK  168  A    between atoms: _401  and  _402
REMARK  169  A    between atoms: _404  and  _406
REMARK  170  A    between atoms: _406  and  _407
REMARK  171  A    between atoms: _406  and  _409
REMARK  172  A    between atoms: _409  and  _410
REMARK  173  A    between atoms: _413  and  _415
REMARK  174  A    between atoms: _415  and  _416
REMARK  175  A    between atoms: _418  and  _420
REMARK  176  A    between atoms: _420  and  _421
REMARK  177  A    between atoms: _423  and  _425
REMARK  178  A    between atoms: _425  and  _426
REMARK  179  A    between atoms: _425  and  _428
REMARK  180  A    between atoms: _428  and  _429
REMARK  181  A    between atoms: _435  and  _437
REMARK  182  A    between atoms: _437  and  _438
REMARK  183  A    between atoms: _437  and  _440
REMARK  184  A    between atoms: _440  and  _441
REMARK  185  A    between atoms: _444  and  _446
REMARK  186  A    between atoms: _446  and  _447
REMARK  187  A    between atoms: _446  and  _449
REMARK  188  A    between atoms: _452  and  _454
REMARK  189  A    between atoms: _454  and  _455
REMARK  190  A    between atoms: _454  and  _457
REMARK  191  A    between atoms: _457  and  _458
REMARK  192  A    between atoms: _461  and  _463
REMARK  193  A    between atoms: _463  and  _464
REMARK  194  A    between atoms: _463  and  _466
REMARK  195  A    between atoms: _466  and  _467
REMARK  196  A    between atoms: _471  and  _472
REMARK  197  A    between atoms: _477  and  _479
REMARK  198  A    between atoms: _479  and  _480
REMARK  199  A    between atoms: _479  and  _482
REMARK  200  A    between atoms: _485  and  _487
REMARK  201  A    between atoms: _487  and  _488
REMARK  202  A    between atoms: _487  and  _490
REMARK  203  A    between atoms: _490  and  _491
REMARK  204  A    between atoms: _494  and  _496
REMARK  205  A    between atoms: _496  and  _497
REMARK  206  A    between atoms: _496  and  _499
REMARK  207  A    between atoms: _499  and  _500
REMARK  208  A    between atoms: _503  and  _505
REMARK  209  A    between atoms: _505  and  _506
REMARK  210  A    between atoms: _508  and  _510
REMARK  211  A    between atoms: _510  and  _511
REMARK  212  A    between atoms: _510  and  _513
REMARK  213  A    between atoms: _513  and  _514
REMARK  214  A    between atoms: _514  and  _515
REMARK  215  A    between atoms: _515  and  _516
REMARK  216  A    between atoms: _525  and  _527
REMARK  217  A    between atoms: _527  and  _528
REMARK  218  A    between atoms: _527  and  _530
REMARK  219  A    between atoms: _530  and  _531
REMARK                            x       y       z     vdW  Elec       q    Type
REMARK                         _______ _______ _______ _____ _____    ______ ____
ROOT
ATOM      1  O   HOH     1       5.499  -3.017  11.986  0.00  0.00    +0.000 OA
ENDROOT
TORSDOF 0
REMARK  Name = ../refined-set-2016/1hpx/1hpx_pocket.pdb
REMARK  219 active torsions:
REMARK  status: ('A' for Active; 'I' for Inactive)
REMARK    1  A    between atoms: _1  and  _3
REMARK    2  A    between atoms: _3  and  _4
REMARK    3  A    between atoms: _3  and  _6
REMARK    4  A    between atoms: _6  and  _7
REMARK    5  A    between atoms: _7  and  _8
REMARK    6  A    between atoms: _8  and  _9
REMARK    7  A    between atoms: _18  and  _20
REMARK    8  A    between atoms: _20  and  _21
REMARK    9  A    between atoms: _20  and  _23
REMARK   10  A    between atoms: _23  and  _24
REMARK   11  A    between atoms: _27  and  _29
REMARK   12  A    between atoms: _29  and  _30
REMARK   13  A    between atoms: _29  and  _32
REMARK   14  A    between atoms: _32  and  _33
REMARK   15  A    between atoms: _36  and  _38
REMARK   16  A    between atoms: _38  and  _39
REMARK   17  A    between atoms: _38  and  _41
REMARK   18  A    between atoms: _41  and  _42
REMARK   19  A    between atoms: _45  and  _47
REMARK   20  A    between atoms: _47  and  _48
REMARK   21  A    between atoms: _47  and  _50
REMARK   22  A    between atoms: _50  and  _51
REMARK   23  A    between atoms: _54  and  _56
REMARK   24  A    between atoms: _56  and  _57
REMARK   25  A    between atoms: _59  and  _61
REMARK   26  A    between atoms: _61  and  _62
REMARK   27  A    between atoms: _65  and  _67
REMARK   28  A    between atoms: _67  and  _68
REMARK   29  A    between atoms: _67  and  _70
REMARK   30  A    between atoms: _70  and  _71
REMARK   31  A    between atoms: _74  and  _76
REMARK   32  A    between atoms: _76  and  _77
REMARK   33  A    between atoms: _76  and  _79
REMARK   34  A    between atoms: _79  and  _80
REMARK   35  A    between atoms: _83  and  _85
REMARK   36  A    between atoms: _85  and  _86
REMARK   37  A    between atoms: _85  and  _88
REMARK   38  A    between atoms: _88  and  _89
REMARK   39  A    between atoms: _92  and  _94
REMARK   40  A    between atoms: _94  and  _95
REMARK   41  A    between atoms: _94  and  _97
REMARK   42  A    between atoms: _100  and  _102
REMARK   43  A    between atoms: _102  and  _103
REMARK   44  A    between atoms: _102  and  _105
REMARK   45  A    between atoms: _105  and  _106
REMARK   46  A    between atoms: _106  and  _107
REMARK   47  A    between atoms: _107  and  _108
REMARK   48  A    between atoms: _108  and  _109
REMARK   49  A    between atoms: _113  and  _115
REMARK   50  A    between atoms: _115  and  _116
REMARK   51  A    between atoms: _115  and  _118
REMARK   52  A    between atoms: _118  and  _119
REMARK   53  A    between atoms: _119  and  _120
REMARK   54  A    between atoms: _122  and  _124
REMARK   55  A    between atoms: _124  and  _125
REMARK   56  A    between atoms: _124  and  _127
REMARK   57  A    between atoms: _127  and  _128
REMARK   58  A    between atoms: _131  and  _133
REMARK   59  A    between atoms: _133  and  _134
REMARK   60  A    between atoms: _136  and  _138
REMARK   61  A    between atoms: _138  and  _139
REMARK   62  A    between atoms: _141  and  _143
REMARK   63  A    between atoms: _143  and  _144
REMARK   64  A    between atoms: _143  and  _146
REMARK   65  A    between atoms: _146  and  _147
REMARK   66  A    between atoms: _150  and  _152
REMARK   67  A    between atoms: _152  and  _153
REMARK   68  A    between atoms: _155  and  _157
REMARK   69  A    between atoms: _157  and  _158
REMARK   70  A    between atoms: _160  and  _162
REMARK   71  A    between atoms: _162  and  _163
REMARK   72  A    between atoms: _162  and  _165
REMARK   73  A    between atoms: _165  and  _166
REMARK   74  A    between atoms: _172  and  _174
REMARK   75  A    between atoms: _174  and  _175
REMARK   76  A    between atoms: _174  and  _177
REMARK   77  A    between atoms: _177  and  _178
REMARK   78  A    between atoms: _181  and  _183
REMARK   79  A    between atoms: _183  and  _184
REMARK   80  A    between atoms: _183  and  _186
REMARK   81  A    between atoms: _189  and  _191
REMARK   82  A    between atoms: _191  and  _192
REMARK   83  A    between atoms: _191  and  _194
REMARK   84  A    between atoms: _194  and  _195
REMARK   85  A    between atoms: _198  and  _200
REMARK   86  A    between atoms: _200  and  _201
REMARK   87  A    between atoms: _200  and  _203
REMARK   88  A    between atoms: _203  and  _204
REMARK   89  A    between atoms: _208  and  _209
REMARK   90  A    between atoms: _214  and  _216
REMARK   91  A    between atoms: _216  and  _217
REMARK   92  A    between atoms: _216  and  _219
REMARK   93  A    between atoms: _222  and  _224
REMARK   94  A    between atoms: _224  and  _225
REMARK   95  A    between atoms: _224  and  _227
REMARK   96  A    between atoms: _227  and  _228
REMARK   97  A    between atoms: _233  and  _235
REMARK   98  A    between atoms: _235  and  _236
REMARK   99  A    between atoms: _235  and  _238
REMARK  100  A    between atoms: _238  and  _239
REMARK  101  A    between atoms: _242  and  _244
REMARK  102  A    between atoms: _244  and  _245
REMARK  103  A    between atoms: _244  and  _247
REMARK  104  A    between atoms: _247  and  _248
REMARK  105  A    between atoms: _251  and  _253
REMARK  106  A    between atoms: _253  and  _254
REMARK  107  A    between atoms: _256  and  _258
REMARK  108  A    between atoms: _258  and  _259
REMARK  109  A    between atoms: _258  and  _261
REMARK  110  A    between atoms: _261  and  _262
REMARK  111  A    between atoms: _262  and  _263
REMARK  112  A    between atoms: _263  and  _264
REMARK  113  A    between atoms: _273  and  _275
REMARK  114  A    between atoms: _275  and  _276
REMARK  115  A    between atoms: _275  and  _278
REMARK  116  A    between atoms: _278  and  _279
REMARK  117  A    between atoms: _279  and  _280
REMARK  118  A    between atoms: _280  and  _281
REMARK  119  A    between atoms: _290  and  _292
REMARK  120  A    between atoms: _292  and  _293
REMARK  121  A    between atoms: _292  and  _295
REMARK  122  A    between atoms: _295  and  _296
REMARK  123  A    between atoms: _299  and  _301
REMARK  124  A    between atoms: _301  and  _302
REMARK  125  A    between atoms: _301  and  _304
REMARK  126  A    between atoms: _304  and  _305
REMARK  127  A    between atoms: _308  and  _310
REMARK  128  A    between atoms: _310  and  _311
REMARK  129  A    between atoms: _310  and  _313
REMARK  130  A    between atoms: _313  and  _314
REMARK  131  A    between atoms: _317  and  _319
REMARK  132  A    between atoms: _319  and  _320
REMARK  133  A    between atoms: _319  and  _322
REMARK  134  A    between atoms: _322  and  _323
REMARK  135  A    between atoms: _326  and  _328
REMARK  136  A    between atoms: _328  and  _329
REMARK  137  A    between atoms: _331  and  _333
REMARK  138  A    between atoms: _333  and  _334
REMARK  139  A    between atoms: _337  and  _339
REMARK  140  A    between atoms: _339  and  _340
REMARK  141  A    between atoms: _339  and  _342
REMARK  142  A    between atoms: _342  and  _343
REMARK  143  A    between atoms: _346  and  _348
REMARK  144  A    between atoms: _348  and  _349
REMARK  145  A    between atoms: _348  and  _351
REMARK  146  A    between atoms: _351  and  _352
REMARK  147  A    between atoms: _355  and  _357
REMARK  148  A    between atoms: _357  and  _358
REMARK  149  A    between atoms: _357  and  _360
REMARK  150  A    between atoms: _360  and  _361
REMARK  151  A    between atoms: _364  and  _366
REMARK  152  A    between atoms: _366  and  _367
REMARK  153  A    between atoms: _366  and  _369
REMARK  154  A    between atoms: _372  and  _374
REMARK  155  A    between atoms: _374  and  _375
REMARK  156  A    between atoms: _374  and  _377
REMARK  157  A    between atoms: _377  and  _378
REMARK  158  A    between atoms: _378  and  _379
REMARK  159  A    between atoms: _379  and  _380
REMARK  160  A    between atoms: _380  and  _381
REMARK  161  A    between atoms: _385  and  _387
REMARK  162  A    between atoms: _387  and  _388
REMARK  163  A    between atoms: _387  and  _390
REMARK  164  A    between atoms: _390  and  _391
REMARK  165  A    between atoms: _394  and  _396
REMARK  166  A    between atoms: _396  and  _397
REMARK  167  A    between atoms: _399  and  _401
REMARK  168  A    between atoms: _401  and  _402
REMARK  169  A    between atoms: _404  and  _406
REMARK  170  A    between atoms: _406  and  _407
REMARK  171  A    between atoms: _406  and  _409
REMARK  172  A    between atoms: _409  and  _410
REMARK  173  A    between atoms: _413  and  _415
REMARK  174  A    between atoms: _415  and  _416
REMARK  175  A    between atoms: _418  and  _420
REMARK  176  A    between atoms: _420  and  _421
REMARK  177  A    between atoms: _423  and  _425
REMARK  178  A    between atoms: _425  and  _426
REMARK  179  A    between atoms: _425  and  _428
REMARK  180  A    between atoms: _428  and  _429
REMARK  181  A    between atoms: _435  and  _437
REMARK  182  A    between atoms: _437  and  _438
REMARK  183  A    between atoms: _437  and  _440
REMARK  184  A    between atoms: _440  and  _441
REMARK  185  A    between atoms: _444  and  _446
REMARK  186  A    between atoms: _446  and  _447
REMARK  187  A    between atoms: _446  and  _449
REMARK  188  A    between atoms: _452  and  _454
REMARK  189  A    between atoms: _454  and  _455
REMARK  190  A    between atoms: _454  and  _457
REMARK  191  A    between atoms: _457  and  _458
REMARK  192  A    between atoms: _461  and  _463
REMARK  193  A    between atoms: _463  and  _464
REMARK  194  A    between atoms: _463  and  _466
REMARK  195  A    between atoms: _466  and  _467
REMARK  196  A    between atoms: _471  and  _472
REMARK  197  A    between atoms: _477  and  _479
REMARK  198  A    between atoms: _479  and  _480
REMARK  199  A    between atoms: _479  and  _482
REMARK  200  A    between atoms: _485  and  _487
REMARK  201  A    between atoms: _487  and  _488
REMARK  202  A    between atoms: _487  and  _490
REMARK  203  A    between atoms: _490  and  _491
REMARK  204  A    between atoms: _494  and  _496
REMARK  205  A    between atoms: _496  and  _497
REMARK  206  A    between atoms: _496  and  _499
REMARK  207  A    between atoms: _499  and  _500
REMARK  208  A    between atoms: _503  and  _505
REMARK  209  A    between atoms: _505  and  _506
REMARK  210  A    between atoms: _508  and  _510
REMARK  211  A    between atoms: _510  and  _511
REMARK  212  A    between atoms: _510  and  _513
REMARK  213  A    between atoms: _513  and  _514
REMARK  214  A    between atoms: _514  and  _515
REMARK  215  A    between atoms: _515  and  _516
REMARK  216  A    between atoms: _525  and  _527
REMARK  217  A    between atoms: _527  and  _528
REMARK  218  A    between atoms: _527  and  _530
REMARK  219  A    between atoms: _530  and  _531
REMARK                            x       y       z     vdW  Elec       q    Type
REMARK                         _______ _______ _______ _____ _____    ______ ____
ROOT
ATOM      1  O   HOH     1       5.131   7.471  15.747  0.00  0.00    +0.000 OA
ENDROOT
TORSDOF 0
REMARK  Name = ../refined-set-2016/1hpx/1hpx_pocket.pdb
REMARK  219 active torsions:
REMARK  status: ('A' for Active; 'I' for Inactive)
REMARK    1  A    between atoms: _1  and  _3
REMARK    2  A    between atoms: _3  and  _4
REMARK    3  A    between atoms: _3  and  _6
REMARK    4  A    between atoms: _6  and  _7
REMARK    5  A    between atoms: _7  and  _8
REMARK    6  A    between atoms: _8  and  _9
REMARK    7  A    between atoms: _18  and  _20
REMARK    8  A    between atoms: _20  and  _21
REMARK    9  A    between atoms: _20  and  _23
REMARK   10  A    between atoms: _23  and  _24
REMARK   11  A    between atoms: _27  and  _29
REMARK   12  A    between atoms: _29  and  _30
REMARK   13  A    between atoms: _29  and  _32
REMARK   14  A    between atoms: _32  and  _33
REMARK   15  A    between atoms: _36  and  _38
REMARK   16  A    between atoms: _38  and  _39
REMARK   17  A    between atoms: _38  and  _41
REMARK   18  A    between atoms: _41  and  _42
REMARK   19  A    between atoms: _45  and  _47
REMARK   20  A    between atoms: _47  and  _48
REMARK   21  A    between atoms: _47  and  _50
REMARK   22  A    between atoms: _50  and  _51
REMARK   23  A    between atoms: _54  and  _56
REMARK   24  A    between atoms: _56  and  _57
REMARK   25  A    between atoms: _59  and  _61
REMARK   26  A    between atoms: _61  and  _62
REMARK   27  A    between atoms: _65  and  _67
REMARK   28  A    between atoms: _67  and  _68
REMARK   29  A    between atoms: _67  and  _70
REMARK   30  A    between atoms: _70  and  _71
REMARK   31  A    between atoms: _74  and  _76
REMARK   32  A    between atoms: _76  and  _77
REMARK   33  A    between atoms: _76  and  _79
REMARK   34  A    between atoms: _79  and  _80
REMARK   35  A    between atoms: _83  and  _85
REMARK   36  A    between atoms: _85  and  _86
REMARK   37  A    between atoms: _85  and  _88
REMARK   38  A    between atoms: _88  and  _89
REMARK   39  A    between atoms: _92  and  _94
REMARK   40  A    between atoms: _94  and  _95
REMARK   41  A    between atoms: _94  and  _97
REMARK   42  A    between atoms: _100  and  _102
REMARK   43  A    between atoms: _102  and  _103
REMARK   44  A    between atoms: _102  and  _105
REMARK   45  A    between atoms: _105  and  _106
REMARK   46  A    between atoms: _106  and  _107
REMARK   47  A    between atoms: _107  and  _108
REMARK   48  A    between atoms: _108  and  _109
REMARK   49  A    between atoms: _113  and  _115
REMARK   50  A    between atoms: _115  and  _116
REMARK   51  A    between atoms: _115  and  _118
REMARK   52  A    between atoms: _118  and  _119
REMARK   53  A    between atoms: _119  and  _120
REMARK   54  A    between atoms: _122  and  _124
REMARK   55  A    between atoms: _124  and  _125
REMARK   56  A    between atoms: _124  and  _127
REMARK   57  A    between atoms: _127  and  _128
REMARK   58  A    between atoms: _131  and  _133
REMARK   59  A    between atoms: _133  and  _134
REMARK   60  A    between atoms: _136  and  _138
REMARK   61  A    between atoms: _138  and  _139
REMARK   62  A    between atoms: _141  and  _143
REMARK   63  A    between atoms: _143  and  _144
REMARK   64  A    between atoms: _143  and  _146
REMARK   65  A    between atoms: _146  and  _147
REMARK   66  A    between atoms: _150  and  _152
REMARK   67  A    between atoms: _152  and  _153
REMARK   68  A    between atoms: _155  and  _157
REMARK   69  A    between atoms: _157  and  _158
REMARK   70  A    between atoms: _160  and  _162
REMARK   71  A    between atoms: _162  and  _163
REMARK   72  A    between atoms: _162  and  _165
REMARK   73  A    between atoms: _165  and  _166
REMARK   74  A    between atoms: _172  and  _174
REMARK   75  A    between atoms: _174  and  _175
REMARK   76  A    between atoms: _174  and  _177
REMARK   77  A    between atoms: _177  and  _178
REMARK   78  A    between atoms: _181  and  _183
REMARK   79  A    between atoms: _183  and  _184
REMARK   80  A    between atoms: _183  and  _186
REMARK   81  A    between atoms: _189  and  _191
REMARK   82  A    between atoms: _191  and  _192
REMARK   83  A    between atoms: _191  and  _194
REMARK   84  A    between atoms: _194  and  _195
REMARK   85  A    between atoms: _198  and  _200
REMARK   86  A    between atoms: _200  and  _201
REMARK   87  A    between atoms: _200  and  _203
REMARK   88  A    between atoms: _203  and  _204
REMARK   89  A    between atoms: _208  and  _209
REMARK   90  A    between atoms: _214  and  _216
REMARK   91  A    between atoms: _216  and  _217
REMARK   92  A    between atoms: _216  and  _219
REMARK   93  A    between atoms: _222  and  _224
REMARK   94  A    between atoms: _224  and  _225
REMARK   95  A    between atoms: _224  and  _227
REMARK   96  A    between atoms: _227  and  _228
REMARK   97  A    between atoms: _233  and  _235
REMARK   98  A    between atoms: _235  and  _236
REMARK   99  A    between atoms: _235  and  _238
REMARK  100  A    between atoms: _238  and  _239
REMARK  101  A    between atoms: _242  and  _244
REMARK  102  A    between atoms: _244  and  _245
REMARK  103  A    between atoms: _244  and  _247
REMARK  104  A    between atoms: _247  and  _248
REMARK  105  A    between atoms: _251  and  _253
REMARK  106  A    between atoms: _253  and  _254
REMARK  107  A    between atoms: _256  and  _258
REMARK  108  A    between atoms: _258  and  _259
REMARK  109  A    between atoms: _258  and  _261
REMARK  110  A    between atoms: _261  and  _262
REMARK  111  A    between atoms: _262  and  _263
REMARK  112  A    between atoms: _263  and  _264
REMARK  113  A    between atoms: _273  and  _275
REMARK  114  A    between atoms: _275  and  _276
REMARK  115  A    between atoms: _275  and  _278
REMARK  116  A    between atoms: _278  and  _279
REMARK  117  A    between atoms: _279  and  _280
REMARK  118  A    between atoms: _280  and  _281
REMARK  119  A    between atoms: _290  and  _292
REMARK  120  A    between atoms: _292  and  _293
REMARK  121  A    between atoms: _292  and  _295
REMARK  122  A    between atoms: _295  and  _296
REMARK  123  A    between atoms: _299  and  _301
REMARK  124  A    between atoms: _301  and  _302
REMARK  125  A    between atoms: _301  and  _304
REMARK  126  A    between atoms: _304  and  _305
REMARK  127  A    between atoms: _308  and  _310
REMARK  128  A    between atoms: _310  and  _311
REMARK  129  A    between atoms: _310  and  _313
REMARK  130  A    between atoms: _313  and  _314
REMARK  131  A    between atoms: _317  and  _319
REMARK  132  A    between atoms: _319  and  _320
REMARK  133  A    between atoms: _319  and  _322
REMARK  134  A    between atoms: _322  and  _323
REMARK  135  A    between atoms: _326  and  _328
REMARK  136  A    between atoms: _328  and  _329
REMARK  137  A    between atoms: _331  and  _333
REMARK  138  A    between atoms: _333  and  _334
REMARK  139  A    between atoms: _337  and  _339
REMARK  140  A    between atoms: _339  and  _340
REMARK  141  A    between atoms: _339  and  _342
REMARK  142  A    between atoms: _342  and  _343
REMARK  143  A    between atoms: _346  and  _348
REMARK  144  A    between atoms: _348  and  _349
REMARK  145  A    between atoms: _348  and  _351
REMARK  146  A    between atoms: _351  and  _352
REMARK  147  A    between atoms: _355  and  _357
REMARK  148  A    between atoms: _357  and  _358
REMARK  149  A    between atoms: _357  and  _360
REMARK  150  A    between atoms: _360  and  _361
REMARK  151  A    between atoms: _364  and  _366
REMARK  152  A    between atoms: _366  and  _367
REMARK  153  A    between atoms: _366  and  _369
REMARK  154  A    between atoms: _372  and  _374
REMARK  155  A    between atoms: _374  and  _375
REMARK  156  A    between atoms: _374  and  _377
REMARK  157  A    between atoms: _377  and  _378
REMARK  158  A    between atoms: _378  and  _379
REMARK  159  A    between atoms: _379  and  _380
REMARK  160  A    between atoms: _380  and  _381
REMARK  161  A    between atoms: _385  and  _387
REMARK  162  A    between atoms: _387  and  _388
REMARK  163  A    between atoms: _387  and  _390
REMARK  164  A    between atoms: _390  and  _391
REMARK  165  A    between atoms: _394  and  _396
REMARK  166  A    between atoms: _396  and  _397
REMARK  167  A    between atoms: _399  and  _401
REMARK  168  A    between atoms: _401  and  _402
REMARK  169  A    between atoms: _404  and  _406
REMARK  170  A    between atoms: _406  and  _407
REMARK  171  A    between atoms: _406  and  _409
REMARK  172  A    between atoms: _409  and  _410
REMARK  173  A    between atoms: _413  and  _415
REMARK  174  A    between atoms: _415  and  _416
REMARK  175  A    between atoms: _418  and  _420
REMARK  176  A    between atoms: _420  and  _421
REMARK  177  A    between atoms: _423  and  _425
REMARK  178  A    between atoms: _425  and  _426
REMARK  179  A    between atoms: _425  and  _428
REMARK  180  A    between atoms: _428  and  _429
REMARK  181  A    between atoms: _435  and  _437
REMARK  182  A    between atoms: _437  and  _438
REMARK  183  A    between atoms: _437  and  _440
REMARK  184  A    between atoms: _440  and  _441
REMARK  185  A    between atoms: _444  and  _446
REMARK  186  A    between atoms: _446  and  _447
REMARK  187  A    between atoms: _446  and  _449
REMARK  188  A    between atoms: _452  and  _454
REMARK  189  A    between atoms: _454  and  _455
REMARK  190  A    between atoms: _454  and  _457
REMARK  191  A    between atoms: _457  and  _458
REMARK  192  A    between atoms: _461  and  _463
REMARK  193  A    between atoms: _463  and  _464
REMARK  194  A    between atoms: _463  and  _466
REMARK  195  A    between atoms: _466  and  _467
REMARK  196  A    between atoms: _471  and  _472
REMARK  197  A    between atoms: _477  and  _479
REMARK  198  A    between atoms: _479  and  _480
REMARK  199  A    between atoms: _479  and  _482
REMARK  200  A    between atoms: _485  and  _487
REMARK  201  A    between atoms: _487  and  _488
REMARK  202  A    between atoms: _487  and  _490
REMARK  203  A    between atoms: _490  and  _491
REMARK  204  A    between atoms: _494  and  _496
REMARK  205  A    between atoms: _496  and  _497
REMARK  206  A    between atoms: _496  and  _499
REMARK  207  A    between atoms: _499  and  _500
REMARK  208  A    between atoms: _503  and  _505
REMARK  209  A    between atoms: _505  and  _506
REMARK  210  A    between atoms: _508  and  _510
REMARK  211  A    between atoms: _510  and  _511
REMARK  212  A    between atoms: _510  and  _513
REMARK  213  A    between atoms: _513  and  _514
REMARK  214  A    between atoms: _514  and  _515
REMARK  215  A    between atoms: _515  and  _516
REMARK  216  A    between atoms: _525  and  _527
REMARK  217  A    between atoms: _527  and  _528
REMARK  218  A    between atoms: _527  and  _530
REMARK  219  A    between atoms: _530  and  _531
REMARK                            x       y       z     vdW  Elec       q    Type
REMARK                         _______ _______ _______ _____ _____    ______ ____
ROOT
ATOM      1  O   HOH     1       5.422   6.114  13.151  0.00  0.00    +0.000 OA
ENDROOT
TORSDOF 0
REMARK  Name = ../refined-set-2016/1hpx/1hpx_pocket.pdb
REMARK  219 active torsions:
REMARK  status: ('A' for Active; 'I' for Inactive)
REMARK    1  A    between atoms: _1  and  _3
REMARK    2  A    between atoms: _3  and  _4
REMARK    3  A    between atoms: _3  and  _6
REMARK    4  A    between atoms: _6  and  _7
REMARK    5  A    between atoms: _7  and  _8
REMARK    6  A    between atoms: _8  and  _9
REMARK    7  A    between atoms: _18  and  _20
REMARK    8  A    between atoms: _20  and  _21
REMARK    9  A    between atoms: _20  and  _23
REMARK   10  A    between atoms: _23  and  _24
REMARK   11  A    between atoms: _27  and  _29
REMARK   12  A    between atoms: _29  and  _30
REMARK   13  A    between atoms: _29  and  _32
REMARK   14  A    between atoms: _32  and  _33
REMARK   15  A    between atoms: _36  and  _38
REMARK   16  A    between atoms: _38  and  _39
REMARK   17  A    between atoms: _38  and  _41
REMARK   18  A    between atoms: _41  and  _42
REMARK   19  A    between atoms: _45  and  _47
REMARK   20  A    between atoms: _47  and  _48
REMARK   21  A    between atoms: _47  and  _50
REMARK   22  A    between atoms: _50  and  _51
REMARK   23  A    between atoms: _54  and  _56
REMARK   24  A    between atoms: _56  and  _57
REMARK   25  A    between atoms: _59  and  _61
REMARK   26  A    between atoms: _61  and  _62
REMARK   27  A    between atoms: _65  and  _67
REMARK   28  A    between atoms: _67  and  _68
REMARK   29  A    between atoms: _67  and  _70
REMARK   30  A    between atoms: _70  and  _71
REMARK   31  A    between atoms: _74  and  _76
REMARK   32  A    between atoms: _76  and  _77
REMARK   33  A    between atoms: _76  and  _79
REMARK   34  A    between atoms: _79  and  _80
REMARK   35  A    between atoms: _83  and  _85
REMARK   36  A    between atoms: _85  and  _86
REMARK   37  A    between atoms: _85  and  _88
REMARK   38  A    between atoms: _88  and  _89
REMARK   39  A    between atoms: _92  and  _94
REMARK   40  A    between atoms: _94  and  _95
REMARK   41  A    between atoms: _94  and  _97
REMARK   42  A    between atoms: _100  and  _102
REMARK   43  A    between atoms: _102  and  _103
REMARK   44  A    between atoms: _102  and  _105
REMARK   45  A    between atoms: _105  and  _106
REMARK   46  A    between atoms: _106  and  _107
REMARK   47  A    between atoms: _107  and  _108
REMARK   48  A    between atoms: _108  and  _109
REMARK   49  A    between atoms: _113  and  _115
REMARK   50  A    between atoms: _115  and  _116
REMARK   51  A    between atoms: _115  and  _118
REMARK   52  A    between atoms: _118  and  _119
REMARK   53  A    between atoms: _119  and  _120
REMARK   54  A    between atoms: _122  and  _124
REMARK   55  A    between atoms: _124  and  _125
REMARK   56  A    between atoms: _124  and  _127
REMARK   57  A    between atoms: _127  and  _128
REMARK   58  A    between atoms: _131  and  _133
REMARK   59  A    between atoms: _133  and  _134
REMARK   60  A    between atoms: _136  and  _138
REMARK   61  A    between atoms: _138  and  _139
REMARK   62  A    between atoms: _141  and  _143
REMARK   63  A    between atoms: _143  and  _144
REMARK   64  A    between atoms: _143  and  _146
REMARK   65  A    between atoms: _146  and  _147
REMARK   66  A    between atoms: _150  and  _152
REMARK   67  A    between atoms: _152  and  _153
REMARK   68  A    between atoms: _155  and  _157
REMARK   69  A    between atoms: _157  and  _158
REMARK   70  A    between atoms: _160  and  _162
REMARK   71  A    between atoms: _162  and  _163
REMARK   72  A    between atoms: _162  and  _165
REMARK   73  A    between atoms: _165  and  _166
REMARK   74  A    between atoms: _172  and  _174
REMARK   75  A    between atoms: _174  and  _175
REMARK   76  A    between atoms: _174  and  _177
REMARK   77  A    between atoms: _177  and  _178
REMARK   78  A    between atoms: _181  and  _183
REMARK   79  A    between atoms: _183  and  _184
REMARK   80  A    between atoms: _183  and  _186
REMARK   81  A    between atoms: _189  and  _191
REMARK   82  A    between atoms: _191  and  _192
REMARK   83  A    between atoms: _191  and  _194
REMARK   84  A    between atoms: _194  and  _195
REMARK   85  A    between atoms: _198  and  _200
REMARK   86  A    between atoms: _200  and  _201
REMARK   87  A    between atoms: _200  and  _203
REMARK   88  A    between atoms: _203  and  _204
REMARK   89  A    between atoms: _208  and  _209
REMARK   90  A    between atoms: _214  and  _216
REMARK   91  A    between atoms: _216  and  _217
REMARK   92  A    between atoms: _216  and  _219
REMARK   93  A    between atoms: _222  and  _224
REMARK   94  A    between atoms: _224  and  _225
REMARK   95  A    between atoms: _224  and  _227
REMARK   96  A    between atoms: _227  and  _228
REMARK   97  A    between atoms: _233  and  _235
REMARK   98  A    between atoms: _235  and  _236
REMARK   99  A    between atoms: _235  and  _238
REMARK  100  A    between atoms: _238  and  _239
REMARK  101  A    between atoms: _242  and  _244
REMARK  102  A    between atoms: _244  and  _245
REMARK  103  A    between atoms: _244  and  _247
REMARK  104  A    between atoms: _247  and  _248
REMARK  105  A    between atoms: _251  and  _253
REMARK  106  A    between atoms: _253  and  _254
REMARK  107  A    between atoms: _256  and  _258
REMARK  108  A    between atoms: _258  and  _259
REMARK  109  A    between atoms: _258  and  _261
REMARK  110  A    between atoms: _261  and  _262
REMARK  111  A    between atoms: _262  and  _263
REMARK  112  A    between atoms: _263  and  _264
REMARK  113  A    between atoms: _273  and  _275
REMARK  114  A    between atoms: _275  and  _276
REMARK  115  A    between atoms: _275  and  _278
REMARK  116  A    between atoms: _278  and  _279
REMARK  117  A    between atoms: _279  and  _280
REMARK  118  A    between atoms: _280  and  _281
REMARK  119  A    between atoms: _290  and  _292
REMARK  120  A    between atoms: _292  and  _293
REMARK  121  A    between atoms: _292  and  _295
REMARK  122  A    between atoms: _295  and  _296
REMARK  123  A    between atoms: _299  and  _301
REMARK  124  A    between atoms: _301  and  _302
REMARK  125  A    between atoms: _301  and  _304
REMARK  126  A    between atoms: _304  and  _305
REMARK  127  A    between atoms: _308  and  _310
REMARK  128  A    between atoms: _310  and  _311
REMARK  129  A    between atoms: _310  and  _313
REMARK  130  A    between atoms: _313  and  _314
REMARK  131  A    between atoms: _317  and  _319
REMARK  132  A    between atoms: _319  and  _320
REMARK  133  A    between atoms: _319  and  _322
REMARK  134  A    between atoms: _322  and  _323
REMARK  135  A    between atoms: _326  and  _328
REMARK  136  A    between atoms: _328  and  _329
REMARK  137  A    between atoms: _331  and  _333
REMARK  138  A    between atoms: _333  and  _334
REMARK  139  A    between atoms: _337  and  _339
REMARK  140  A    between atoms: _339  and  _340
REMARK  141  A    between atoms: _339  and  _342
REMARK  142  A    between atoms: _342  and  _343
REMARK  143  A    between atoms: _346  and  _348
REMARK  144  A    between atoms: _348  and  _349
REMARK  145  A    between atoms: _348  and  _351
REMARK  146  A    between atoms: _351  and  _352
REMARK  147  A    between atoms: _355  and  _357
REMARK  148  A    between atoms: _357  and  _358
REMARK  149  A    between atoms: _357  and  _360
REMARK  150  A    between atoms: _360  and  _361
REMARK  151  A    between atoms: _364  and  _366
REMARK  152  A    between atoms: _366  and  _367
REMARK  153  A    between atoms: _366  and  _369
REMARK  154  A    between atoms: _372  and  _374
REMARK  155  A    between atoms: _374  and  _375
REMARK  156  A    between atoms: _374  and  _377
REMARK  157  A    between atoms: _377  and  _378
REMARK  158  A    between atoms: _378  and  _379
REMARK  159  A    between atoms: _379  and  _380
REMARK  160  A    between atoms: _380  and  _381
REMARK  161  A    between atoms: _385  and  _387
REMARK  162  A    between atoms: _387  and  _388
REMARK  163  A    between atoms: _387  and  _390
REMARK  164  A    between atoms: _390  and  _391
REMARK  165  A    between atoms: _394  and  _396
REMARK  166  A    between atoms: _396  and  _397
REMARK  167  A    between atoms: _399  and  _401
REMARK  168  A    between atoms: _401  and  _402
REMARK  169  A    between atoms: _404  and  _406
REMARK  170  A    between atoms: _406  and  _407
REMARK  171  A    between atoms: _406  and  _409
REMARK  172  A    between atoms: _409  and  _410
REMARK  173  A    between atoms: _413  and  _415
REMARK  174  A    between atoms: _415  and  _416
REMARK  175  A    between atoms: _418  and  _420
REMARK  176  A    between atoms: _420  and  _421
REMARK  177  A    between atoms: _423  and  _425
REMARK  178  A    between atoms: _425  and  _426
REMARK  179  A    between atoms: _425  and  _428
REMARK  180  A    between atoms: _428  and  _429
REMARK  181  A    between atoms: _435  and  _437
REMARK  182  A    between atoms: _437  and  _438
REMARK  183  A    between atoms: _437  and  _440
REMARK  184  A    between atoms: _440  and  _441
REMARK  185  A    between atoms: _444  and  _446
REMARK  186  A    between atoms: _446  and  _447
REMARK  187  A    between atoms: _446  and  _449
REMARK  188  A    between atoms: _452  and  _454
REMARK  189  A    between atoms: _454  and  _455
REMARK  190  A    between atoms: _454  and  _457
REMARK  191  A    between atoms: _457  and  _458
REMARK  192  A    between atoms: _461  and  _463
REMARK  193  A    between atoms: _463  and  _464
REMARK  194  A    between atoms: _463  and  _466
REMARK  195  A    between atoms: _466  and  _467
REMARK  196  A    between atoms: _471  and  _472
REMARK  197  A    between atoms: _477  and  _479
REMARK  198  A    between atoms: _479  and  _480
REMARK  199  A    between atoms: _479  and  _482
REMARK  200  A    between atoms: _485  and  _487
REMARK  201  A    between atoms: _487  and  _488
REMARK  202  A    between atoms: _487  and  _490
REMARK  203  A    between atoms: _490  and  _491
REMARK  204  A    between atoms: _494  and  _496
REMARK  205  A    between atoms: _496  and  _497
REMARK  206  A    between atoms: _496  and  _499
REMARK  207  A    between atoms: _499  and  _500
REMARK  208  A    between atoms: _503  and  _505
REMARK  209  A    between atoms: _505  and  _506
REMARK  210  A    between atoms: _508  and  _510
REMARK  211  A    between atoms: _510  and  _511
REMARK  212  A    between atoms: _510  and  _513
REMARK  213  A    between atoms: _513  and  _514
REMARK  214  A    between atoms: _514  and  _515
REMARK  215  A    between atoms: _515  and  _516
REMARK  216  A    between atoms: _525  and  _527
REMARK  217  A    between atoms: _527  and  _528
REMARK  218  A    between atoms: _527  and  _530
REMARK  219  A    between atoms: _530  and  _531
REMARK                            x       y       z     vdW  Elec       q    Type
REMARK                         _______ _______ _______ _____ _____    ______ ____
ROOT
ATOM      1  O   HOH     1       2.605  -2.931  18.488  0.00  0.00    +0.000 OA
ENDROOT
TORSDOF 0
REMARK  Name = ../refined-set-2016/1hpx/1hpx_pocket.pdb
REMARK  219 active torsions:
REMARK  status: ('A' for Active; 'I' for Inactive)
REMARK    1  A    between atoms: _1  and  _3
REMARK    2  A    between atoms: _3  and  _4
REMARK    3  A    between atoms: _3  and  _6
REMARK    4  A    between atoms: _6  and  _7
REMARK    5  A    between atoms: _7  and  _8
REMARK    6  A    between atoms: _8  and  _9
REMARK    7  A    between atoms: _18  and  _20
REMARK    8  A    between atoms: _20  and  _21
REMARK    9  A    between atoms: _20  and  _23
REMARK   10  A    between atoms: _23  and  _24
REMARK   11  A    between atoms: _27  and  _29
REMARK   12  A    between atoms: _29  and  _30
REMARK   13  A    between atoms: _29  and  _32
REMARK   14  A    between atoms: _32  and  _33
REMARK   15  A    between atoms: _36  and  _38
REMARK   16  A    between atoms: _38  and  _39
REMARK   17  A    between atoms: _38  and  _41
REMARK   18  A    between atoms: _41  and  _42
REMARK   19  A    between atoms: _45  and  _47
REMARK   20  A    between atoms: _47  and  _48
REMARK   21  A    between atoms: _47  and  _50
REMARK   22  A    between atoms: _50  and  _51
REMARK   23  A    between atoms: _54  and  _56
REMARK   24  A    between atoms: _56  and  _57
REMARK   25  A    between atoms: _59  and  _61
REMARK   26  A    between atoms: _61  and  _62
REMARK   27  A    between atoms: _65  and  _67
REMARK   28  A    between atoms: _67  and  _68
REMARK   29  A    between atoms: _67  and  _70
REMARK   30  A    between atoms: _70  and  _71
REMARK   31  A    between atoms: _74  and  _76
REMARK   32  A    between atoms: _76  and  _77
REMARK   33  A    between atoms: _76  and  _79
REMARK   34  A    between atoms: _79  and  _80
REMARK   35  A    between atoms: _83  and  _85
REMARK   36  A    between atoms: _85  and  _86
REMARK   37  A    between atoms: _85  and  _88
REMARK   38  A    between atoms: _88  and  _89
REMARK   39  A    between atoms: _92  and  _94
REMARK   40  A    between atoms: _94  and  _95
REMARK   41  A    between atoms: _94  and  _97
REMARK   42  A    between atoms: _100  and  _102
REMARK   43  A    between atoms: _102  and  _103
REMARK   44  A    between atoms: _102  and  _105
REMARK   45  A    between atoms: _105  and  _106
REMARK   46  A    between atoms: _106  and  _107
REMARK   47  A    between atoms: _107  and  _108
REMARK   48  A    between atoms: _108  and  _109
REMARK   49  A    between atoms: _113  and  _115
REMARK   50  A    between atoms: _115  and  _116
REMARK   51  A    between atoms: _115  and  _118
REMARK   52  A    between atoms: _118  and  _119
REMARK   53  A    between atoms: _119  and  _120
REMARK   54  A    between atoms: _122  and  _124
REMARK   55  A    between atoms: _124  and  _125
REMARK   56  A    between atoms: _124  and  _127
REMARK   57  A    between atoms: _127  and  _128
REMARK   58  A    between atoms: _131  and  _133
REMARK   59  A    between atoms: _133  and  _134
REMARK   60  A    between atoms: _136  and  _138
REMARK   61  A    between atoms: _138  and  _139
REMARK   62  A    between atoms: _141  and  _143
REMARK   63  A    between atoms: _143  and  _144
REMARK   64  A    between atoms: _143  and  _146
REMARK   65  A    between atoms: _146  and  _147
REMARK   66  A    between atoms: _150  and  _152
REMARK   67  A    between atoms: _152  and  _153
REMARK   68  A    between atoms: _155  and  _157
REMARK   69  A    between atoms: _157  and  _158
REMARK   70  A    between atoms: _160  and  _162
REMARK   71  A    between atoms: _162  and  _163
REMARK   72  A    between atoms: _162  and  _165
REMARK   73  A    between atoms: _165  and  _166
REMARK   74  A    between atoms: _172  and  _174
REMARK   75  A    between atoms: _174  and  _175
REMARK   76  A    between atoms: _174  and  _177
REMARK   77  A    between atoms: _177  and  _178
REMARK   78  A    between atoms: _181  and  _183
REMARK   79  A    between atoms: _183  and  _184
REMARK   80  A    between atoms: _183  and  _186
REMARK   81  A    between atoms: _189  and  _191
REMARK   82  A    between atoms: _191  and  _192
REMARK   83  A    between atoms: _191  and  _194
REMARK   84  A    between atoms: _194  and  _195
REMARK   85  A    between atoms: _198  and  _200
REMARK   86  A    between atoms: _200  and  _201
REMARK   87  A    between atoms: _200  and  _203
REMARK   88  A    between atoms: _203  and  _204
REMARK   89  A    between atoms: _208  and  _209
REMARK   90  A    between atoms: _214  and  _216
REMARK   91  A    between atoms: _216  and  _217
REMARK   92  A    between atoms: _216  and  _219
REMARK   93  A    between atoms: _222  and  _224
REMARK   94  A    between atoms: _224  and  _225
REMARK   95  A    between atoms: _224  and  _227
REMARK   96  A    between atoms: _227  and  _228
REMARK   97  A    between atoms: _233  and  _235
REMARK   98  A    between atoms: _235  and  _236
REMARK   99  A    between atoms: _235  and  _238
REMARK  100  A    between atoms: _238  and  _239
REMARK  101  A    between atoms: _242  and  _244
REMARK  102  A    between atoms: _244  and  _245
REMARK  103  A    between atoms: _244  and  _247
REMARK  104  A    between atoms: _247  and  _248
REMARK  105  A    between atoms: _251  and  _253
REMARK  106  A    between atoms: _253  and  _254
REMARK  107  A    between atoms: _256  and  _258
REMARK  108  A    between atoms: _258  and  _259
REMARK  109  A    between atoms: _258  and  _261
REMARK  110  A    between atoms: _261  and  _262
REMARK  111  A    between atoms: _262  and  _263
REMARK  112  A    between atoms: _263  and  _264
REMARK  113  A    between atoms: _273  and  _275
REMARK  114  A    between atoms: _275  and  _276
REMARK  115  A    between atoms: _275  and  _278
REMARK  116  A    between atoms: _278  and  _279
REMARK  117  A    between atoms: _279  and  _280
REMARK  118  A    between atoms: _280  and  _281
REMARK  119  A    between atoms: _290  and  _292
REMARK  120  A    between atoms: _292  and  _293
REMARK  121  A    between atoms: _292  and  _295
REMARK  122  A    between atoms: _295  and  _296
REMARK  123  A    between atoms: _299  and  _301
REMARK  124  A    between atoms: _301  and  _302
REMARK  125  A    between atoms: _301  and  _304
REMARK  126  A    between atoms: _304  and  _305
REMARK  127  A    between atoms: _308  and  _310
REMARK  128  A    between atoms: _310  and  _311
REMARK  129  A    between atoms: _310  and  _313
REMARK  130  A    between atoms: _313  and  _314
REMARK  131  A    between atoms: _317  and  _319
REMARK  132  A    between atoms: _319  and  _320
REMARK  133  A    between atoms: _319  and  _322
REMARK  134  A    between atoms: _322  and  _323
REMARK  135  A    between atoms: _326  and  _328
REMARK  136  A    between atoms: _328  and  _329
REMARK  137  A    between atoms: _331  and  _333
REMARK  138  A    between atoms: _333  and  _334
REMARK  139  A    between atoms: _337  and  _339
REMARK  140  A    between atoms: _339  and  _340
REMARK  141  A    between atoms: _339  and  _342
REMARK  142  A    between atoms: _342  and  _343
REMARK  143  A    between atoms: _346  and  _348
REMARK  144  A    between atoms: _348  and  _349
REMARK  145  A    between atoms: _348  and  _351
REMARK  146  A    between atoms: _351  and  _352
REMARK  147  A    between atoms: _355  and  _357
REMARK  148  A    between atoms: _357  and  _358
REMARK  149  A    between atoms: _357  and  _360
REMARK  150  A    between atoms: _360  and  _361
REMARK  151  A    between atoms: _364  and  _366
REMARK  152  A    between atoms: _366  and  _367
REMARK  153  A    between atoms: _366  and  _369
REMARK  154  A    between atoms: _372  and  _374
REMARK  155  A    between atoms: _374  and  _375
REMARK  156  A    between atoms: _374  and  _377
REMARK  157  A    between atoms: _377  and  _378
REMARK  158  A    between atoms: _378  and  _379
REMARK  159  A    between atoms: _379  and  _380
REMARK  160  A    between atoms: _380  and  _381
REMARK  161  A    between atoms: _385  and  _387
REMARK  162  A    between atoms: _387  and  _388
REMARK  163  A    between atoms: _387  and  _390
REMARK  164  A    between atoms: _390  and  _391
REMARK  165  A    between atoms: _394  and  _396
REMARK  166  A    between atoms: _396  and  _397
REMARK  167  A    between atoms: _399  and  _401
REMARK  168  A    between atoms: _401  and  _402
REMARK  169  A    between atoms: _404  and  _406
REMARK  170  A    between atoms: _406  and  _407
REMARK  171  A    between atoms: _406  and  _409
REMARK  172  A    between atoms: _409  and  _410
REMARK  173  A    between atoms: _413  and  _415
REMARK  174  A    between atoms: _415  and  _416
REMARK  175  A    between atoms: _418  and  _420
REMARK  176  A    between atoms: _420  and  _421
REMARK  177  A    between atoms: _423  and  _425
REMARK  178  A    between atoms: _425  and  _426
REMARK  179  A    between atoms: _425  and  _428
REMARK  180  A    between atoms: _428  and  _429
REMARK  181  A    between atoms: _435  and  _437
REMARK  182  A    between atoms: _437  and  _438
REMARK  183  A    between atoms: _437  and  _440
REMARK  184  A    between atoms: _440  and  _441
REMARK  185  A    between atoms: _444  and  _446
REMARK  186  A    between atoms: _446  and  _447
REMARK  187  A    between atoms: _446  and  _449
REMARK  188  A    between atoms: _452  and  _454
REMARK  189  A    between atoms: _454  and  _455
REMARK  190  A    between atoms: _454  and  _457
REMARK  191  A    between atoms: _457  and  _458
REMARK  192  A    between atoms: _461  and  _463
REMARK  193  A    between atoms: _463  and  _464
REMARK  194  A    between atoms: _463  and  _466
REMARK  195  A    between atoms: _466  and  _467
REMARK  196  A    between atoms: _471  and  _472
REMARK  197  A    between atoms: _477  and  _479
REMARK  198  A    between atoms: _479  and  _480
REMARK  199  A    between atoms: _479  and  _482
REMARK  200  A    between atoms: _485  and  _487
REMARK  201  A    between atoms: _487  and  _488
REMARK  202  A    between atoms: _487  and  _490
REMARK  203  A    between atoms: _490  and  _491
REMARK  204  A    between atoms: _494  and  _496
REMARK  205  A    between atoms: _496  and  _497
REMARK  206  A    between atoms: _496  and  _499
REMARK  207  A    between atoms: _499  and  _500
REMARK  208  A    between atoms: _503  and  _505
REMARK  209  A    between atoms: _505  and  _506
REMARK  210  A    between atoms: _508  and  _510
REMARK  211  A    between atoms: _510  and  _511
REMARK  212  A    between atoms: _510  and  _513
REMARK  213  A    between atoms: _513  and  _514
REMARK  214  A    between atoms: _514  and  _515
REMARK  215  A    between atoms: _515  and  _516
REMARK  216  A    between atoms: _525  and  _527
REMARK  217  A    between atoms: _527  and  _528
REMARK  218  A    between atoms: _527  and  _530
REMARK  219  A    between atoms: _530  and  _531
REMARK                            x       y       z     vdW  Elec       q    Type
REMARK                         _______ _______ _______ _____ _____    ______ ____
ROOT
ATOM      1  O   HOH     1       6.800  -5.786  19.049  0.00  0.00    +0.000 OA
ENDROOT
TORSDOF 0
