REMARK  Name = ../refined-set-2016/3ibu/3ibu_pocket.pdb
REMARK  150 active torsions:
REMARK  status: ('A' for Active; 'I' for Inactive)
REMARK    1  A    between atoms: _1  and  _3
REMARK    2  A    between atoms: _3  and  _4
REMARK    3  A    between atoms: _3  and  _6
REMARK    4  A    between atoms: _6  and  _7
REMARK    5  A    between atoms: _17  and  _19
REMARK    6  A    between atoms: _19  and  _20
REMARK    7  A    between atoms: _19  and  _22
REMARK    8  A    between atoms: _22  and  _23
REMARK    9  A    between atoms: _28  and  _29
REMARK   10  A    between atoms: _31  and  _33
REMARK   11  A    between atoms: _33  and  _34
REMARK   12  A    between atoms: _33  and  _36
REMARK   13  A    between atoms: _36  and  _37
REMARK   14  A    between atoms: _40  and  _41
REMARK   15  A    between atoms: _46  and  _48
REMARK   16  A    between atoms: _48  and  _49
REMARK   17  A    between atoms: _48  and  _51
REMARK   18  A    between atoms: _51  and  _52
REMARK   19  A    between atoms: _57  and  _59
REMARK   20  A    between atoms: _59  and  _60
REMARK   21  A    between atoms: _63  and  _65
REMARK   22  A    between atoms: _65  and  _66
REMARK   23  A    between atoms: _65  and  _68
REMARK   24  A    between atoms: _68  and  _69
REMARK   25  A    between atoms: _74  and  _76
REMARK   26  A    between atoms: _76  and  _77
REMARK   27  A    between atoms: _76  and  _79
REMARK   28  A    between atoms: _79  and  _80
REMARK   29  A    between atoms: _83  and  _85
REMARK   30  A    between atoms: _85  and  _86
REMARK   31  A    between atoms: _85  and  _88
REMARK   32  A    between atoms: _88  and  _89
REMARK   33  A    between atoms: _89  and  _90
REMARK   34  A    between atoms: _95  and  _97
REMARK   35  A    between atoms: _97  and  _98
REMARK   36  A    between atoms: _97  and  _100
REMARK   37  A    between atoms: _100  and  _101
REMARK   38  A    between atoms: _107  and  _109
REMARK   39  A    between atoms: _120  and  _123
REMARK   40  A    between atoms: _123  and  _124
REMARK   41  A    between atoms: _132  and  _133
REMARK   42  A    between atoms: _141  and  _143
REMARK   43  A    between atoms: _143  and  _144
REMARK   44  A    between atoms: _143  and  _146
REMARK   45  A    between atoms: _146  and  _147
REMARK   46  A    between atoms: _147  and  _148
REMARK   47  A    between atoms: _151  and  _153
REMARK   48  A    between atoms: _153  and  _154
REMARK   49  A    between atoms: _153  and  _156
REMARK   50  A    between atoms: _156  and  _157
REMARK   51  A    between atoms: _162  and  _164
REMARK   52  A    between atoms: _164  and  _165
REMARK   53  A    between atoms: _164  and  _167
REMARK   54  A    between atoms: _167  and  _168
REMARK   55  A    between atoms: _168  and  _169
REMARK   56  A    between atoms: _172  and  _174
REMARK   57  A    between atoms: _174  and  _175
REMARK   58  A    between atoms: _174  and  _177
REMARK   59  A    between atoms: _177  and  _178
REMARK   60  A    between atoms: _181  and  _183
REMARK   61  A    between atoms: _183  and  _184
REMARK   62  A    between atoms: _183  and  _186
REMARK   63  A    between atoms: _186  and  _187
REMARK   64  A    between atoms: _188  and  ZN_420
REMARK   65  A    between atoms: _192  and  _194
REMARK   66  A    between atoms: _194  and  _195
REMARK   67  A    between atoms: _194  and  _197
REMARK   68  A    between atoms: _197  and  _198
REMARK   69  A    between atoms: _201  and  _203
REMARK   70  A    between atoms: _203  and  _204
REMARK   71  A    between atoms: _203  and  _206
REMARK   72  A    between atoms: _209  and  _211
REMARK   73  A    between atoms: _211  and  _212
REMARK   74  A    between atoms: _211  and  _214
REMARK   75  A    between atoms: _214  and  _215
REMARK   76  A    between atoms: _220  and  _222
REMARK   77  A    between atoms: _222  and  _223
REMARK   78  A    between atoms: _222  and  _225
REMARK   79  A    between atoms: _225  and  _226
REMARK   80  A    between atoms: _232  and  _234
REMARK   81  A    between atoms: _234  and  _235
REMARK   82  A    between atoms: _237  and  _239
REMARK   83  A    between atoms: _239  and  _240
REMARK   84  A    between atoms: _239  and  _242
REMARK   85  A    between atoms: _245  and  _247
REMARK   86  A    between atoms: _247  and  _248
REMARK   87  A    between atoms: _247  and  _250
REMARK   88  A    between atoms: _250  and  _251
REMARK   89  A    between atoms: _251  and  _252
REMARK   90  A    between atoms: _257  and  _259
REMARK   91  A    between atoms: _259  and  _260
REMARK   92  A    between atoms: _259  and  _262
REMARK   93  A    between atoms: _262  and  _263
REMARK   94  A    between atoms: _266  and  _268
REMARK   95  A    between atoms: _268  and  _269
REMARK   96  A    between atoms: _272  and  _274
REMARK   97  A    between atoms: _274  and  _275
REMARK   98  A    between atoms: _274  and  _277
REMARK   99  A    between atoms: _280  and  _282
REMARK  100  A    between atoms: _282  and  _283
REMARK  101  A    between atoms: _282  and  _285
REMARK  102  A    between atoms: _285  and  _286
REMARK  103  A    between atoms: _289  and  _291
REMARK  104  A    between atoms: _291  and  _292
REMARK  105  A    between atoms: _294  and  _296
REMARK  106  A    between atoms: _296  and  _297
REMARK  107  A    between atoms: _296  and  _299
REMARK  108  A    between atoms: _299  and  _300
REMARK  109  A    between atoms: _302  and  _304
REMARK  110  A    between atoms: _304  and  _305
REMARK  111  A    between atoms: _304  and  _307
REMARK  112  A    between atoms: _307  and  _308
REMARK  113  A    between atoms: _311  and  _313
REMARK  114  A    between atoms: _313  and  _314
REMARK  115  A    between atoms: _313  and  _316
REMARK  116  A    between atoms: _316  and  _317
REMARK  117  A    between atoms: _320  and  _322
REMARK  118  A    between atoms: _322  and  _323
REMARK  119  A    between atoms: _322  and  _325
REMARK  120  A    between atoms: _325  and  _326
REMARK  121  A    between atoms: _330  and  _331
REMARK  122  A    between atoms: _337  and  _338
REMARK  123  A    between atoms: _343  and  _345
REMARK  124  A    between atoms: _345  and  _346
REMARK  125  A    between atoms: _345  and  _348
REMARK  126  A    between atoms: _348  and  _349
REMARK  127  A    between atoms: _352  and  _354
REMARK  128  A    between atoms: _354  and  _355
REMARK  129  A    between atoms: _354  and  _357
REMARK  130  A    between atoms: _357  and  _358
REMARK  131  A    between atoms: _361  and  _363
REMARK  132  A    between atoms: _363  and  _364
REMARK  133  A    between atoms: _363  and  _366
REMARK  134  A    between atoms: _368  and  _370
REMARK  135  A    between atoms: _370  and  _371
REMARK  136  A    between atoms: _370  and  _373
REMARK  137  A    between atoms: _376  and  _378
REMARK  138  A    between atoms: _378  and  _379
REMARK  139  A    between atoms: _378  and  _381
REMARK  140  A    between atoms: _381  and  _382
REMARK  141  A    between atoms: _392  and  _394
REMARK  142  A    between atoms: _394  and  _395
REMARK  143  A    between atoms: _394  and  _397
REMARK  144  A    between atoms: _397  and  _398
REMARK  145  A    between atoms: _403  and  _405
REMARK  146  A    between atoms: _405  and  _406
REMARK  147  A    between atoms: _405  and  _408
REMARK  148  A    between atoms: _408  and  _409
REMARK  149  A    between atoms: _409  and  _410
REMARK  150  A    between atoms: _410  and  _411
REMARK                            x       y       z     vdW  Elec       q    Type
REMARK                         _______ _______ _______ _____ _____    ______ ____
ROOT
ATOM      1  CG  TRP A   1       5.715   0.038  11.932  0.00  0.00    -0.002 A 
ATOM      2  CD2 TRP A   1       4.372  -0.471  11.944  0.00  0.00    +0.013 A 
ATOM      3  CE3 TRP A   1       3.806  -1.723  12.232  0.00  0.00    +0.001 A 
ATOM      4  CZ3 TRP A   1       2.423  -1.868  12.141  0.00  0.00    +0.000 A 
ATOM      5  CH2 TRP A   1       1.603  -0.785  11.771  0.00  0.00    +0.001 A 
ATOM      6  CZ2 TRP A   1       2.131   0.447  11.485  0.00  0.00    +0.017 A 
ATOM      7  CE2 TRP A   1       3.519   0.594  11.575  0.00  0.00    +0.056 A 
ATOM      8  NE1 TRP A   1       4.308   1.691  11.350  0.00  0.00    -0.352 N 
ATOM      9  HE1 TRP A   1       3.968   2.631  11.062  0.00  0.00    +0.166 HD
ATOM     10  CD1 TRP A   1       5.622   1.350  11.566  0.00  0.00    +0.068 A 
ENDROOT
BRANCH   1  11
ATOM     11  CB  TRP A   1       6.978  -0.724  12.266  0.00  0.00    +0.053 C 
BRANCH  11  12
ATOM     12  CA  TRP A   1       7.643  -1.443  11.080  0.00  0.00    +0.137 C 
BRANCH  12  13
ATOM     13  N   TRP A   1       8.255  -0.497  10.153  0.00  0.00    -0.239 NA
ATOM     14  H   TRP A   1       8.080   0.522  10.262  0.00  0.00    +0.142 HD
ENDBRANCH  12  13
BRANCH  12  15
ATOM     15  C   TRP A   1       6.610  -2.302  10.366  0.00  0.00    +0.224 C 
ATOM     16  O   TRP A   1       6.040  -1.902   9.352  0.00  0.00    -0.287 OA
ENDBRANCH  12  15
ENDBRANCH  11  12
ENDBRANCH   1  11
TORSDOF 4
REMARK  Name = ../refined-set-2016/3ibu/3ibu_pocket.pdb
REMARK  150 active torsions:
REMARK  status: ('A' for Active; 'I' for Inactive)
REMARK    1  A    between atoms: _1  and  _3
REMARK    2  A    between atoms: _3  and  _4
REMARK    3  A    between atoms: _3  and  _6
REMARK    4  A    between atoms: _6  and  _7
REMARK    5  A    between atoms: _17  and  _19
REMARK    6  A    between atoms: _19  and  _20
REMARK    7  A    between atoms: _19  and  _22
REMARK    8  A    between atoms: _22  and  _23
REMARK    9  A    between atoms: _28  and  _29
REMARK   10  A    between atoms: _31  and  _33
REMARK   11  A    between atoms: _33  and  _34
REMARK   12  A    between atoms: _33  and  _36
REMARK   13  A    between atoms: _36  and  _37
REMARK   14  A    between atoms: _40  and  _41
REMARK   15  A    between atoms: _46  and  _48
REMARK   16  A    between atoms: _48  and  _49
REMARK   17  A    between atoms: _48  and  _51
REMARK   18  A    between atoms: _51  and  _52
REMARK   19  A    between atoms: _57  and  _59
REMARK   20  A    between atoms: _59  and  _60
REMARK   21  A    between atoms: _63  and  _65
REMARK   22  A    between atoms: _65  and  _66
REMARK   23  A    between atoms: _65  and  _68
REMARK   24  A    between atoms: _68  and  _69
REMARK   25  A    between atoms: _74  and  _76
REMARK   26  A    between atoms: _76  and  _77
REMARK   27  A    between atoms: _76  and  _79
REMARK   28  A    between atoms: _79  and  _80
REMARK   29  A    between atoms: _83  and  _85
REMARK   30  A    between atoms: _85  and  _86
REMARK   31  A    between atoms: _85  and  _88
REMARK   32  A    between atoms: _88  and  _89
REMARK   33  A    between atoms: _89  and  _90
REMARK   34  A    between atoms: _95  and  _97
REMARK   35  A    between atoms: _97  and  _98
REMARK   36  A    between atoms: _97  and  _100
REMARK   37  A    between atoms: _100  and  _101
REMARK   38  A    between atoms: _107  and  _109
REMARK   39  A    between atoms: _120  and  _123
REMARK   40  A    between atoms: _123  and  _124
REMARK   41  A    between atoms: _132  and  _133
REMARK   42  A    between atoms: _141  and  _143
REMARK   43  A    between atoms: _143  and  _144
REMARK   44  A    between atoms: _143  and  _146
REMARK   45  A    between atoms: _146  and  _147
REMARK   46  A    between atoms: _147  and  _148
REMARK   47  A    between atoms: _151  and  _153
REMARK   48  A    between atoms: _153  and  _154
REMARK   49  A    between atoms: _153  and  _156
REMARK   50  A    between atoms: _156  and  _157
REMARK   51  A    between atoms: _162  and  _164
REMARK   52  A    between atoms: _164  and  _165
REMARK   53  A    between atoms: _164  and  _167
REMARK   54  A    between atoms: _167  and  _168
REMARK   55  A    between atoms: _168  and  _169
REMARK   56  A    between atoms: _172  and  _174
REMARK   57  A    between atoms: _174  and  _175
REMARK   58  A    between atoms: _174  and  _177
REMARK   59  A    between atoms: _177  and  _178
REMARK   60  A    between atoms: _181  and  _183
REMARK   61  A    between atoms: _183  and  _184
REMARK   62  A    between atoms: _183  and  _186
REMARK   63  A    between atoms: _186  and  _187
REMARK   64  A    between atoms: _188  and  ZN_420
REMARK   65  A    between atoms: _192  and  _194
REMARK   66  A    between atoms: _194  and  _195
REMARK   67  A    between atoms: _194  and  _197
REMARK   68  A    between atoms: _197  and  _198
REMARK   69  A    between atoms: _201  and  _203
REMARK   70  A    between atoms: _203  and  _204
REMARK   71  A    between atoms: _203  and  _206
REMARK   72  A    between atoms: _209  and  _211
REMARK   73  A    between atoms: _211  and  _212
REMARK   74  A    between atoms: _211  and  _214
REMARK   75  A    between atoms: _214  and  _215
REMARK   76  A    between atoms: _220  and  _222
REMARK   77  A    between atoms: _222  and  _223
REMARK   78  A    between atoms: _222  and  _225
REMARK   79  A    between atoms: _225  and  _226
REMARK   80  A    between atoms: _232  and  _234
REMARK   81  A    between atoms: _234  and  _235
REMARK   82  A    between atoms: _237  and  _239
REMARK   83  A    between atoms: _239  and  _240
REMARK   84  A    between atoms: _239  and  _242
REMARK   85  A    between atoms: _245  and  _247
REMARK   86  A    between atoms: _247  and  _248
REMARK   87  A    between atoms: _247  and  _250
REMARK   88  A    between atoms: _250  and  _251
REMARK   89  A    between atoms: _251  and  _252
REMARK   90  A    between atoms: _257  and  _259
REMARK   91  A    between atoms: _259  and  _260
REMARK   92  A    between atoms: _259  and  _262
REMARK   93  A    between atoms: _262  and  _263
REMARK   94  A    between atoms: _266  and  _268
REMARK   95  A    between atoms: _268  and  _269
REMARK   96  A    between atoms: _272  and  _274
REMARK   97  A    between atoms: _274  and  _275
REMARK   98  A    between atoms: _274  and  _277
REMARK   99  A    between atoms: _280  and  _282
REMARK  100  A    between atoms: _282  and  _283
REMARK  101  A    between atoms: _282  and  _285
REMARK  102  A    between atoms: _285  and  _286
REMARK  103  A    between atoms: _289  and  _291
REMARK  104  A    between atoms: _291  and  _292
REMARK  105  A    between atoms: _294  and  _296
REMARK  106  A    between atoms: _296  and  _297
REMARK  107  A    between atoms: _296  and  _299
REMARK  108  A    between atoms: _299  and  _300
REMARK  109  A    between atoms: _302  and  _304
REMARK  110  A    between atoms: _304  and  _305
REMARK  111  A    between atoms: _304  and  _307
REMARK  112  A    between atoms: _307  and  _308
REMARK  113  A    between atoms: _311  and  _313
REMARK  114  A    between atoms: _313  and  _314
REMARK  115  A    between atoms: _313  and  _316
REMARK  116  A    between atoms: _316  and  _317
REMARK  117  A    between atoms: _320  and  _322
REMARK  118  A    between atoms: _322  and  _323
REMARK  119  A    between atoms: _322  and  _325
REMARK  120  A    between atoms: _325  and  _326
REMARK  121  A    between atoms: _330  and  _331
REMARK  122  A    between atoms: _337  and  _338
REMARK  123  A    between atoms: _343  and  _345
REMARK  124  A    between atoms: _345  and  _346
REMARK  125  A    between atoms: _345  and  _348
REMARK  126  A    between atoms: _348  and  _349
REMARK  127  A    between atoms: _352  and  _354
REMARK  128  A    between atoms: _354  and  _355
REMARK  129  A    between atoms: _354  and  _357
REMARK  130  A    between atoms: _357  and  _358
REMARK  131  A    between atoms: _361  and  _363
REMARK  132  A    between atoms: _363  and  _364
REMARK  133  A    between atoms: _363  and  _366
REMARK  134  A    between atoms: _368  and  _370
REMARK  135  A    between atoms: _370  and  _371
REMARK  136  A    between atoms: _370  and  _373
REMARK  137  A    between atoms: _376  and  _378
REMARK  138  A    between atoms: _378  and  _379
REMARK  139  A    between atoms: _378  and  _381
REMARK  140  A    between atoms: _381  and  _382
REMARK  141  A    between atoms: _392  and  _394
REMARK  142  A    between atoms: _394  and  _395
REMARK  143  A    between atoms: _394  and  _397
REMARK  144  A    between atoms: _397  and  _398
REMARK  145  A    between atoms: _403  and  _405
REMARK  146  A    between atoms: _405  and  _406
REMARK  147  A    between atoms: _405  and  _408
REMARK  148  A    between atoms: _408  and  _409
REMARK  149  A    between atoms: _409  and  _410
REMARK  150  A    between atoms: _410  and  _411
REMARK                            x       y       z     vdW  Elec       q    Type
REMARK                         _______ _______ _______ _____ _____    ______ ____
ROOT
ATOM      1  CG  TYR A   1       1.956  -7.079  11.856  0.00  0.00    -0.020 A 
ATOM      2  CD2 TYR A   1       1.547  -7.016  13.187  0.00  0.00    -0.001 A 
ATOM      3  CE2 TYR A   1       0.700  -5.999  13.633  0.00  0.00    +0.036 A 
ATOM      4  CZ  TYR A   1       0.255  -5.038  12.739  0.00  0.00    +0.134 A 
ATOM      5  CE1 TYR A   1       0.648  -5.081  11.413  0.00  0.00    +0.036 A 
ATOM      6  CD1 TYR A   1       1.495  -6.098  10.979  0.00  0.00    -0.001 A 
ENDROOT
BRANCH   4   7
ATOM      7  OH  TYR A   1      -0.589  -4.041  13.163  0.00  0.00    -0.506 OA
ATOM      8  HH  TYR A   1      -0.805  -3.447  12.401  0.00  0.00    +0.292 HD
ENDBRANCH   4   7
BRANCH   1   9
ATOM      9  CB  TYR A   1       2.895  -8.166  11.385  0.00  0.00    +0.051 C 
BRANCH   9  10
ATOM     10  CA  TYR A   1       4.373  -7.815  11.568  0.00  0.00    +0.137 C 
BRANCH  10  11
ATOM     11  N   TYR A   1       4.724  -6.667  10.741  0.00  0.00    -0.239 NA
ATOM     12  H   TYR A   1       4.713  -6.765   9.706  0.00  0.00    +0.142 HD
ENDBRANCH  10  11
BRANCH  10  13
ATOM     13  C   TYR A   1       5.237  -9.033  11.256  0.00  0.00    +0.224 C 
ATOM     14  O   TYR A   1       4.847 -10.170  11.528  0.00  0.00    -0.287 OA
ENDBRANCH  10  13
ENDBRANCH   9  10
ENDBRANCH   1   9
TORSDOF 5
REMARK  Name = ../refined-set-2016/3ibu/3ibu_pocket.pdb
REMARK  150 active torsions:
REMARK  status: ('A' for Active; 'I' for Inactive)
REMARK    1  A    between atoms: _1  and  _3
REMARK    2  A    between atoms: _3  and  _4
REMARK    3  A    between atoms: _3  and  _6
REMARK    4  A    between atoms: _6  and  _7
REMARK    5  A    between atoms: _17  and  _19
REMARK    6  A    between atoms: _19  and  _20
REMARK    7  A    between atoms: _19  and  _22
REMARK    8  A    between atoms: _22  and  _23
REMARK    9  A    between atoms: _28  and  _29
REMARK   10  A    between atoms: _31  and  _33
REMARK   11  A    between atoms: _33  and  _34
REMARK   12  A    between atoms: _33  and  _36
REMARK   13  A    between atoms: _36  and  _37
REMARK   14  A    between atoms: _40  and  _41
REMARK   15  A    between atoms: _46  and  _48
REMARK   16  A    between atoms: _48  and  _49
REMARK   17  A    between atoms: _48  and  _51
REMARK   18  A    between atoms: _51  and  _52
REMARK   19  A    between atoms: _57  and  _59
REMARK   20  A    between atoms: _59  and  _60
REMARK   21  A    between atoms: _63  and  _65
REMARK   22  A    between atoms: _65  and  _66
REMARK   23  A    between atoms: _65  and  _68
REMARK   24  A    between atoms: _68  and  _69
REMARK   25  A    between atoms: _74  and  _76
REMARK   26  A    between atoms: _76  and  _77
REMARK   27  A    between atoms: _76  and  _79
REMARK   28  A    between atoms: _79  and  _80
REMARK   29  A    between atoms: _83  and  _85
REMARK   30  A    between atoms: _85  and  _86
REMARK   31  A    between atoms: _85  and  _88
REMARK   32  A    between atoms: _88  and  _89
REMARK   33  A    between atoms: _89  and  _90
REMARK   34  A    between atoms: _95  and  _97
REMARK   35  A    between atoms: _97  and  _98
REMARK   36  A    between atoms: _97  and  _100
REMARK   37  A    between atoms: _100  and  _101
REMARK   38  A    between atoms: _107  and  _109
REMARK   39  A    between atoms: _120  and  _123
REMARK   40  A    between atoms: _123  and  _124
REMARK   41  A    between atoms: _132  and  _133
REMARK   42  A    between atoms: _141  and  _143
REMARK   43  A    between atoms: _143  and  _144
REMARK   44  A    between atoms: _143  and  _146
REMARK   45  A    between atoms: _146  and  _147
REMARK   46  A    between atoms: _147  and  _148
REMARK   47  A    between atoms: _151  and  _153
REMARK   48  A    between atoms: _153  and  _154
REMARK   49  A    between atoms: _153  and  _156
REMARK   50  A    between atoms: _156  and  _157
REMARK   51  A    between atoms: _162  and  _164
REMARK   52  A    between atoms: _164  and  _165
REMARK   53  A    between atoms: _164  and  _167
REMARK   54  A    between atoms: _167  and  _168
REMARK   55  A    between atoms: _168  and  _169
REMARK   56  A    between atoms: _172  and  _174
REMARK   57  A    between atoms: _174  and  _175
REMARK   58  A    between atoms: _174  and  _177
REMARK   59  A    between atoms: _177  and  _178
REMARK   60  A    between atoms: _181  and  _183
REMARK   61  A    between atoms: _183  and  _184
REMARK   62  A    between atoms: _183  and  _186
REMARK   63  A    between atoms: _186  and  _187
REMARK   64  A    between atoms: _188  and  ZN_420
REMARK   65  A    between atoms: _192  and  _194
REMARK   66  A    between atoms: _194  and  _195
REMARK   67  A    between atoms: _194  and  _197
REMARK   68  A    between atoms: _197  and  _198
REMARK   69  A    between atoms: _201  and  _203
REMARK   70  A    between atoms: _203  and  _204
REMARK   71  A    between atoms: _203  and  _206
REMARK   72  A    between atoms: _209  and  _211
REMARK   73  A    between atoms: _211  and  _212
REMARK   74  A    between atoms: _211  and  _214
REMARK   75  A    between atoms: _214  and  _215
REMARK   76  A    between atoms: _220  and  _222
REMARK   77  A    between atoms: _222  and  _223
REMARK   78  A    between atoms: _222  and  _225
REMARK   79  A    between atoms: _225  and  _226
REMARK   80  A    between atoms: _232  and  _234
REMARK   81  A    between atoms: _234  and  _235
REMARK   82  A    between atoms: _237  and  _239
REMARK   83  A    between atoms: _239  and  _240
REMARK   84  A    between atoms: _239  and  _242
REMARK   85  A    between atoms: _245  and  _247
REMARK   86  A    between atoms: _247  and  _248
REMARK   87  A    between atoms: _247  and  _250
REMARK   88  A    between atoms: _250  and  _251
REMARK   89  A    between atoms: _251  and  _252
REMARK   90  A    between atoms: _257  and  _259
REMARK   91  A    between atoms: _259  and  _260
REMARK   92  A    between atoms: _259  and  _262
REMARK   93  A    between atoms: _262  and  _263
REMARK   94  A    between atoms: _266  and  _268
REMARK   95  A    between atoms: _268  and  _269
REMARK   96  A    between atoms: _272  and  _274
REMARK   97  A    between atoms: _274  and  _275
REMARK   98  A    between atoms: _274  and  _277
REMARK   99  A    between atoms: _280  and  _282
REMARK  100  A    between atoms: _282  and  _283
REMARK  101  A    between atoms: _282  and  _285
REMARK  102  A    between atoms: _285  and  _286
REMARK  103  A    between atoms: _289  and  _291
REMARK  104  A    between atoms: _291  and  _292
REMARK  105  A    between atoms: _294  and  _296
REMARK  106  A    between atoms: _296  and  _297
REMARK  107  A    between atoms: _296  and  _299
REMARK  108  A    between atoms: _299  and  _300
REMARK  109  A    between atoms: _302  and  _304
REMARK  110  A    between atoms: _304  and  _305
REMARK  111  A    between atoms: _304  and  _307
REMARK  112  A    between atoms: _307  and  _308
REMARK  113  A    between atoms: _311  and  _313
REMARK  114  A    between atoms: _313  and  _314
REMARK  115  A    between atoms: _313  and  _316
REMARK  116  A    between atoms: _316  and  _317
REMARK  117  A    between atoms: _320  and  _322
REMARK  118  A    between atoms: _322  and  _323
REMARK  119  A    between atoms: _322  and  _325
REMARK  120  A    between atoms: _325  and  _326
REMARK  121  A    between atoms: _330  and  _331
REMARK  122  A    between atoms: _337  and  _338
REMARK  123  A    between atoms: _343  and  _345
REMARK  124  A    between atoms: _345  and  _346
REMARK  125  A    between atoms: _345  and  _348
REMARK  126  A    between atoms: _348  and  _349
REMARK  127  A    between atoms: _352  and  _354
REMARK  128  A    between atoms: _354  and  _355
REMARK  129  A    between atoms: _354  and  _357
REMARK  130  A    between atoms: _357  and  _358
REMARK  131  A    between atoms: _361  and  _363
REMARK  132  A    between atoms: _363  and  _364
REMARK  133  A    between atoms: _363  and  _366
REMARK  134  A    between atoms: _368  and  _370
REMARK  135  A    between atoms: _370  and  _371
REMARK  136  A    between atoms: _370  and  _373
REMARK  137  A    between atoms: _376  and  _378
REMARK  138  A    between atoms: _378  and  _379
REMARK  139  A    between atoms: _378  and  _381
REMARK  140  A    between atoms: _381  and  _382
REMARK  141  A    between atoms: _392  and  _394
REMARK  142  A    between atoms: _394  and  _395
REMARK  143  A    between atoms: _394  and  _397
REMARK  144  A    between atoms: _397  and  _398
REMARK  145  A    between atoms: _403  and  _405
REMARK  146  A    between atoms: _405  and  _406
REMARK  147  A    between atoms: _405  and  _408
REMARK  148  A    between atoms: _408  and  _409
REMARK  149  A    between atoms: _409  and  _410
REMARK  150  A    between atoms: _410  and  _411
REMARK                            x       y       z     vdW  Elec       q    Type
REMARK                         _______ _______ _______ _____ _____    ______ ____
ROOT
ATOM      1  C   SER A   1      -2.275  -3.003  23.100  0.00  0.00    +0.244 C 
ATOM      2  N   PRO A   2      -2.909  -4.161  22.868  0.00  0.00    -0.273 N 
ATOM      3  CA  PRO A   2      -4.071  -4.701  23.576  0.00  0.00    +0.140 C 
ATOM      4  CB  PRO A   2      -4.615  -5.718  22.588  0.00  0.00    +0.030 C 
ATOM      5  CG  PRO A   2      -3.340  -6.311  22.030  0.00  0.00    +0.024 C 
ATOM      6  CD  PRO A   2      -2.484  -5.073  21.787  0.00  0.00    +0.094 C 
ATOM      7  O   SER A   1      -1.308  -2.651  22.425  0.00  0.00    -0.273 OA
ENDROOT
BRANCH   3   8
ATOM      8  C   PRO A   2      -3.672  -5.356  24.892  0.00  0.00    +0.227 C 
ATOM      9  O   PRO A   2      -2.495  -5.369  25.260  0.00  0.00    -0.286 OA
ENDBRANCH   3   8
BRANCH   1  10
ATOM     10  CA  SER A   1      -2.803  -2.121  24.232  0.00  0.00    +0.175 C 
BRANCH  10  11
ATOM     11  N   SER A   1      -1.743  -1.228  24.690  0.00  0.00    -0.236 NA
ATOM     12  H   SER A   1      -1.268  -0.617  23.995  0.00  0.00    +0.142 HD
ENDBRANCH  10  11
BRANCH  10  13
ATOM     13  CB  SER A   1      -4.003  -1.306  23.736  0.00  0.00    +0.163 C 
BRANCH  13  14
ATOM     14  OG  SER A   1      -4.622  -0.593  24.800  0.00  0.00    -0.380 OA
ATOM     15  H   SER A   1      -4.938  -1.234  25.485  0.00  0.00    +0.211 HD
ENDBRANCH  13  14
ENDBRANCH  10  13
ENDBRANCH   1  10
TORSDOF 5
REMARK  Name = ../refined-set-2016/3ibu/3ibu_pocket.pdb
REMARK  150 active torsions:
REMARK  status: ('A' for Active; 'I' for Inactive)
REMARK    1  A    between atoms: _1  and  _3
REMARK    2  A    between atoms: _3  and  _4
REMARK    3  A    between atoms: _3  and  _6
REMARK    4  A    between atoms: _6  and  _7
REMARK    5  A    between atoms: _17  and  _19
REMARK    6  A    between atoms: _19  and  _20
REMARK    7  A    between atoms: _19  and  _22
REMARK    8  A    between atoms: _22  and  _23
REMARK    9  A    between atoms: _28  and  _29
REMARK   10  A    between atoms: _31  and  _33
REMARK   11  A    between atoms: _33  and  _34
REMARK   12  A    between atoms: _33  and  _36
REMARK   13  A    between atoms: _36  and  _37
REMARK   14  A    between atoms: _40  and  _41
REMARK   15  A    between atoms: _46  and  _48
REMARK   16  A    between atoms: _48  and  _49
REMARK   17  A    between atoms: _48  and  _51
REMARK   18  A    between atoms: _51  and  _52
REMARK   19  A    between atoms: _57  and  _59
REMARK   20  A    between atoms: _59  and  _60
REMARK   21  A    between atoms: _63  and  _65
REMARK   22  A    between atoms: _65  and  _66
REMARK   23  A    between atoms: _65  and  _68
REMARK   24  A    between atoms: _68  and  _69
REMARK   25  A    between atoms: _74  and  _76
REMARK   26  A    between atoms: _76  and  _77
REMARK   27  A    between atoms: _76  and  _79
REMARK   28  A    between atoms: _79  and  _80
REMARK   29  A    between atoms: _83  and  _85
REMARK   30  A    between atoms: _85  and  _86
REMARK   31  A    between atoms: _85  and  _88
REMARK   32  A    between atoms: _88  and  _89
REMARK   33  A    between atoms: _89  and  _90
REMARK   34  A    between atoms: _95  and  _97
REMARK   35  A    between atoms: _97  and  _98
REMARK   36  A    between atoms: _97  and  _100
REMARK   37  A    between atoms: _100  and  _101
REMARK   38  A    between atoms: _107  and  _109
REMARK   39  A    between atoms: _120  and  _123
REMARK   40  A    between atoms: _123  and  _124
REMARK   41  A    between atoms: _132  and  _133
REMARK   42  A    between atoms: _141  and  _143
REMARK   43  A    between atoms: _143  and  _144
REMARK   44  A    between atoms: _143  and  _146
REMARK   45  A    between atoms: _146  and  _147
REMARK   46  A    between atoms: _147  and  _148
REMARK   47  A    between atoms: _151  and  _153
REMARK   48  A    between atoms: _153  and  _154
REMARK   49  A    between atoms: _153  and  _156
REMARK   50  A    between atoms: _156  and  _157
REMARK   51  A    between atoms: _162  and  _164
REMARK   52  A    between atoms: _164  and  _165
REMARK   53  A    between atoms: _164  and  _167
REMARK   54  A    between atoms: _167  and  _168
REMARK   55  A    between atoms: _168  and  _169
REMARK   56  A    between atoms: _172  and  _174
REMARK   57  A    between atoms: _174  and  _175
REMARK   58  A    between atoms: _174  and  _177
REMARK   59  A    between atoms: _177  and  _178
REMARK   60  A    between atoms: _181  and  _183
REMARK   61  A    between atoms: _183  and  _184
REMARK   62  A    between atoms: _183  and  _186
REMARK   63  A    between atoms: _186  and  _187
REMARK   64  A    between atoms: _188  and  ZN_420
REMARK   65  A    between atoms: _192  and  _194
REMARK   66  A    between atoms: _194  and  _195
REMARK   67  A    between atoms: _194  and  _197
REMARK   68  A    between atoms: _197  and  _198
REMARK   69  A    between atoms: _201  and  _203
REMARK   70  A    between atoms: _203  and  _204
REMARK   71  A    between atoms: _203  and  _206
REMARK   72  A    between atoms: _209  and  _211
REMARK   73  A    between atoms: _211  and  _212
REMARK   74  A    between atoms: _211  and  _214
REMARK   75  A    between atoms: _214  and  _215
REMARK   76  A    between atoms: _220  and  _222
REMARK   77  A    between atoms: _222  and  _223
REMARK   78  A    between atoms: _222  and  _225
REMARK   79  A    between atoms: _225  and  _226
REMARK   80  A    between atoms: _232  and  _234
REMARK   81  A    between atoms: _234  and  _235
REMARK   82  A    between atoms: _237  and  _239
REMARK   83  A    between atoms: _239  and  _240
REMARK   84  A    between atoms: _239  and  _242
REMARK   85  A    between atoms: _245  and  _247
REMARK   86  A    between atoms: _247  and  _248
REMARK   87  A    between atoms: _247  and  _250
REMARK   88  A    between atoms: _250  and  _251
REMARK   89  A    between atoms: _251  and  _252
REMARK   90  A    between atoms: _257  and  _259
REMARK   91  A    between atoms: _259  and  _260
REMARK   92  A    between atoms: _259  and  _262
REMARK   93  A    between atoms: _262  and  _263
REMARK   94  A    between atoms: _266  and  _268
REMARK   95  A    between atoms: _268  and  _269
REMARK   96  A    between atoms: _272  and  _274
REMARK   97  A    between atoms: _274  and  _275
REMARK   98  A    between atoms: _274  and  _277
REMARK   99  A    between atoms: _280  and  _282
REMARK  100  A    between atoms: _282  and  _283
REMARK  101  A    between atoms: _282  and  _285
REMARK  102  A    between atoms: _285  and  _286
REMARK  103  A    between atoms: _289  and  _291
REMARK  104  A    between atoms: _291  and  _292
REMARK  105  A    between atoms: _294  and  _296
REMARK  106  A    between atoms: _296  and  _297
REMARK  107  A    between atoms: _296  and  _299
REMARK  108  A    between atoms: _299  and  _300
REMARK  109  A    between atoms: _302  and  _304
REMARK  110  A    between atoms: _304  and  _305
REMARK  111  A    between atoms: _304  and  _307
REMARK  112  A    between atoms: _307  and  _308
REMARK  113  A    between atoms: _311  and  _313
REMARK  114  A    between atoms: _313  and  _314
REMARK  115  A    between atoms: _313  and  _316
REMARK  116  A    between atoms: _316  and  _317
REMARK  117  A    between atoms: _320  and  _322
REMARK  118  A    between atoms: _322  and  _323
REMARK  119  A    between atoms: _322  and  _325
REMARK  120  A    between atoms: _325  and  _326
REMARK  121  A    between atoms: _330  and  _331
REMARK  122  A    between atoms: _337  and  _338
REMARK  123  A    between atoms: _343  and  _345
REMARK  124  A    between atoms: _345  and  _346
REMARK  125  A    between atoms: _345  and  _348
REMARK  126  A    between atoms: _348  and  _349
REMARK  127  A    between atoms: _352  and  _354
REMARK  128  A    between atoms: _354  and  _355
REMARK  129  A    between atoms: _354  and  _357
REMARK  130  A    between atoms: _357  and  _358
REMARK  131  A    between atoms: _361  and  _363
REMARK  132  A    between atoms: _363  and  _364
REMARK  133  A    between atoms: _363  and  _366
REMARK  134  A    between atoms: _368  and  _370
REMARK  135  A    between atoms: _370  and  _371
REMARK  136  A    between atoms: _370  and  _373
REMARK  137  A    between atoms: _376  and  _378
REMARK  138  A    between atoms: _378  and  _379
REMARK  139  A    between atoms: _378  and  _381
REMARK  140  A    between atoms: _381  and  _382
REMARK  141  A    between atoms: _392  and  _394
REMARK  142  A    between atoms: _394  and  _395
REMARK  143  A    between atoms: _394  and  _397
REMARK  144  A    between atoms: _397  and  _398
REMARK  145  A    between atoms: _403  and  _405
REMARK  146  A    between atoms: _405  and  _406
REMARK  147  A    between atoms: _405  and  _408
REMARK  148  A    between atoms: _408  and  _409
REMARK  149  A    between atoms: _409  and  _410
REMARK  150  A    between atoms: _410  and  _411
REMARK                            x       y       z     vdW  Elec       q    Type
REMARK                         _______ _______ _______ _____ _____    ______ ____
ROOT
ATOM      1  CB  ASN A   1      -2.409   1.857   5.271  0.00  0.00    +0.110 C 
ENDROOT
BRANCH   1   2
ATOM      2  CG  ASN A   1      -2.799   0.982   6.446  0.00  0.00    +0.221 C 
ATOM      3  ND2 ASN A   1      -3.551   1.548   7.383  0.00  0.00    -0.329 N 
ATOM      4 HD21 ASN A   1      -3.837   1.002   8.220  0.00  0.00    +0.145 HD
ATOM      5 HD22 ASN A   1      -3.853   2.538   7.280  0.00  0.00    +0.145 HD
ATOM      6  OD1 ASN A   1      -2.414  -0.183   6.518  0.00  0.00    -0.275 OA
ENDBRANCH   1   2
BRANCH   1   7
ATOM      7  CA  ASN A   1      -2.078   1.045   4.012  0.00  0.00    +0.142 C 
BRANCH   7   8
ATOM      8  N   ASN A   1      -3.237   0.262   3.579  0.00  0.00    -0.239 NA
ATOM      9  H   ASN A   1      -3.836  -0.209   4.286  0.00  0.00    +0.142 HD
ENDBRANCH   7   8
BRANCH   7  10
ATOM     10  C   ASN A   1      -0.825   0.215   4.266  0.00  0.00    +0.225 C 
ATOM     11  O   ASN A   1       0.147   0.709   4.843  0.00  0.00    -0.287 OA
ENDBRANCH   7  10
ENDBRANCH   1   7
TORSDOF 4
REMARK  Name = ../refined-set-2016/3ibu/3ibu_pocket.pdb
REMARK  150 active torsions:
REMARK  status: ('A' for Active; 'I' for Inactive)
REMARK    1  A    between atoms: _1  and  _3
REMARK    2  A    between atoms: _3  and  _4
REMARK    3  A    between atoms: _3  and  _6
REMARK    4  A    between atoms: _6  and  _7
REMARK    5  A    between atoms: _17  and  _19
REMARK    6  A    between atoms: _19  and  _20
REMARK    7  A    between atoms: _19  and  _22
REMARK    8  A    between atoms: _22  and  _23
REMARK    9  A    between atoms: _28  and  _29
REMARK   10  A    between atoms: _31  and  _33
REMARK   11  A    between atoms: _33  and  _34
REMARK   12  A    between atoms: _33  and  _36
REMARK   13  A    between atoms: _36  and  _37
REMARK   14  A    between atoms: _40  and  _41
REMARK   15  A    between atoms: _46  and  _48
REMARK   16  A    between atoms: _48  and  _49
REMARK   17  A    between atoms: _48  and  _51
REMARK   18  A    between atoms: _51  and  _52
REMARK   19  A    between atoms: _57  and  _59
REMARK   20  A    between atoms: _59  and  _60
REMARK   21  A    between atoms: _63  and  _65
REMARK   22  A    between atoms: _65  and  _66
REMARK   23  A    between atoms: _65  and  _68
REMARK   24  A    between atoms: _68  and  _69
REMARK   25  A    between atoms: _74  and  _76
REMARK   26  A    between atoms: _76  and  _77
REMARK   27  A    between atoms: _76  and  _79
REMARK   28  A    between atoms: _79  and  _80
REMARK   29  A    between atoms: _83  and  _85
REMARK   30  A    between atoms: _85  and  _86
REMARK   31  A    between atoms: _85  and  _88
REMARK   32  A    between atoms: _88  and  _89
REMARK   33  A    between atoms: _89  and  _90
REMARK   34  A    between atoms: _95  and  _97
REMARK   35  A    between atoms: _97  and  _98
REMARK   36  A    between atoms: _97  and  _100
REMARK   37  A    between atoms: _100  and  _101
REMARK   38  A    between atoms: _107  and  _109
REMARK   39  A    between atoms: _120  and  _123
REMARK   40  A    between atoms: _123  and  _124
REMARK   41  A    between atoms: _132  and  _133
REMARK   42  A    between atoms: _141  and  _143
REMARK   43  A    between atoms: _143  and  _144
REMARK   44  A    between atoms: _143  and  _146
REMARK   45  A    between atoms: _146  and  _147
REMARK   46  A    between atoms: _147  and  _148
REMARK   47  A    between atoms: _151  and  _153
REMARK   48  A    between atoms: _153  and  _154
REMARK   49  A    between atoms: _153  and  _156
REMARK   50  A    between atoms: _156  and  _157
REMARK   51  A    between atoms: _162  and  _164
REMARK   52  A    between atoms: _164  and  _165
REMARK   53  A    between atoms: _164  and  _167
REMARK   54  A    between atoms: _167  and  _168
REMARK   55  A    between atoms: _168  and  _169
REMARK   56  A    between atoms: _172  and  _174
REMARK   57  A    between atoms: _174  and  _175
REMARK   58  A    between atoms: _174  and  _177
REMARK   59  A    between atoms: _177  and  _178
REMARK   60  A    between atoms: _181  and  _183
REMARK   61  A    between atoms: _183  and  _184
REMARK   62  A    between atoms: _183  and  _186
REMARK   63  A    between atoms: _186  and  _187
REMARK   64  A    between atoms: _188  and  ZN_420
REMARK   65  A    between atoms: _192  and  _194
REMARK   66  A    between atoms: _194  and  _195
REMARK   67  A    between atoms: _194  and  _197
REMARK   68  A    between atoms: _197  and  _198
REMARK   69  A    between atoms: _201  and  _203
REMARK   70  A    between atoms: _203  and  _204
REMARK   71  A    between atoms: _203  and  _206
REMARK   72  A    between atoms: _209  and  _211
REMARK   73  A    between atoms: _211  and  _212
REMARK   74  A    between atoms: _211  and  _214
REMARK   75  A    between atoms: _214  and  _215
REMARK   76  A    between atoms: _220  and  _222
REMARK   77  A    between atoms: _222  and  _223
REMARK   78  A    between atoms: _222  and  _225
REMARK   79  A    between atoms: _225  and  _226
REMARK   80  A    between atoms: _232  and  _234
REMARK   81  A    between atoms: _234  and  _235
REMARK   82  A    between atoms: _237  and  _239
REMARK   83  A    between atoms: _239  and  _240
REMARK   84  A    between atoms: _239  and  _242
REMARK   85  A    between atoms: _245  and  _247
REMARK   86  A    between atoms: _247  and  _248
REMARK   87  A    between atoms: _247  and  _250
REMARK   88  A    between atoms: _250  and  _251
REMARK   89  A    between atoms: _251  and  _252
REMARK   90  A    between atoms: _257  and  _259
REMARK   91  A    between atoms: _259  and  _260
REMARK   92  A    between atoms: _259  and  _262
REMARK   93  A    between atoms: _262  and  _263
REMARK   94  A    between atoms: _266  and  _268
REMARK   95  A    between atoms: _268  and  _269
REMARK   96  A    between atoms: _272  and  _274
REMARK   97  A    between atoms: _274  and  _275
REMARK   98  A    between atoms: _274  and  _277
REMARK   99  A    between atoms: _280  and  _282
REMARK  100  A    between atoms: _282  and  _283
REMARK  101  A    between atoms: _282  and  _285
REMARK  102  A    between atoms: _285  and  _286
REMARK  103  A    between atoms: _289  and  _291
REMARK  104  A    between atoms: _291  and  _292
REMARK  105  A    between atoms: _294  and  _296
REMARK  106  A    between atoms: _296  and  _297
REMARK  107  A    between atoms: _296  and  _299
REMARK  108  A    between atoms: _299  and  _300
REMARK  109  A    between atoms: _302  and  _304
REMARK  110  A    between atoms: _304  and  _305
REMARK  111  A    between atoms: _304  and  _307
REMARK  112  A    between atoms: _307  and  _308
REMARK  113  A    between atoms: _311  and  _313
REMARK  114  A    between atoms: _313  and  _314
REMARK  115  A    between atoms: _313  and  _316
REMARK  116  A    between atoms: _316  and  _317
REMARK  117  A    between atoms: _320  and  _322
REMARK  118  A    between atoms: _322  and  _323
REMARK  119  A    between atoms: _322  and  _325
REMARK  120  A    between atoms: _325  and  _326
REMARK  121  A    between atoms: _330  and  _331
REMARK  122  A    between atoms: _337  and  _338
REMARK  123  A    between atoms: _343  and  _345
REMARK  124  A    between atoms: _345  and  _346
REMARK  125  A    between atoms: _345  and  _348
REMARK  126  A    between atoms: _348  and  _349
REMARK  127  A    between atoms: _352  and  _354
REMARK  128  A    between atoms: _354  and  _355
REMARK  129  A    between atoms: _354  and  _357
REMARK  130  A    between atoms: _357  and  _358
REMARK  131  A    between atoms: _361  and  _363
REMARK  132  A    between atoms: _363  and  _364
REMARK  133  A    between atoms: _363  and  _366
REMARK  134  A    between atoms: _368  and  _370
REMARK  135  A    between atoms: _370  and  _371
REMARK  136  A    between atoms: _370  and  _373
REMARK  137  A    between atoms: _376  and  _378
REMARK  138  A    between atoms: _378  and  _379
REMARK  139  A    between atoms: _378  and  _381
REMARK  140  A    between atoms: _381  and  _382
REMARK  141  A    between atoms: _392  and  _394
REMARK  142  A    between atoms: _394  and  _395
REMARK  143  A    between atoms: _394  and  _397
REMARK  144  A    between atoms: _397  and  _398
REMARK  145  A    between atoms: _403  and  _405
REMARK  146  A    between atoms: _405  and  _406
REMARK  147  A    between atoms: _405  and  _408
REMARK  148  A    between atoms: _408  and  _409
REMARK  149  A    between atoms: _409  and  _410
REMARK  150  A    between atoms: _410  and  _411
REMARK                            x       y       z     vdW  Elec       q    Type
REMARK                         _______ _______ _______ _____ _____    ______ ____
ROOT
ATOM      1  CA  ALA A   1      -4.518  -3.442   7.164  0.00  0.00    +0.133 C 
ATOM      2  CB  ALA A   1      -5.087  -3.179   8.563  0.00  0.00    +0.027 C 
ENDROOT
BRANCH   1   3
ATOM      3  N   ALA A   1      -3.129  -3.001   7.094  0.00  0.00    -0.239 NA
ATOM      4  H   ALA A   1      -2.908  -2.131   6.569  0.00  0.00    +0.142 HD
ENDBRANCH   1   3
BRANCH   1   5
ATOM      5  C   ALA A   1      -5.235  -2.577   6.131  0.00  0.00    +0.224 C 
ATOM      6  O   ALA A   1      -4.580  -1.939   5.304  0.00  0.00    -0.287 OA
ENDBRANCH   1   5
TORSDOF 2
REMARK  Name = ../refined-set-2016/3ibu/3ibu_pocket.pdb
REMARK  150 active torsions:
REMARK  status: ('A' for Active; 'I' for Inactive)
REMARK    1  A    between atoms: _1  and  _3
REMARK    2  A    between atoms: _3  and  _4
REMARK    3  A    between atoms: _3  and  _6
REMARK    4  A    between atoms: _6  and  _7
REMARK    5  A    between atoms: _17  and  _19
REMARK    6  A    between atoms: _19  and  _20
REMARK    7  A    between atoms: _19  and  _22
REMARK    8  A    between atoms: _22  and  _23
REMARK    9  A    between atoms: _28  and  _29
REMARK   10  A    between atoms: _31  and  _33
REMARK   11  A    between atoms: _33  and  _34
REMARK   12  A    between atoms: _33  and  _36
REMARK   13  A    between atoms: _36  and  _37
REMARK   14  A    between atoms: _40  and  _41
REMARK   15  A    between atoms: _46  and  _48
REMARK   16  A    between atoms: _48  and  _49
REMARK   17  A    between atoms: _48  and  _51
REMARK   18  A    between atoms: _51  and  _52
REMARK   19  A    between atoms: _57  and  _59
REMARK   20  A    between atoms: _59  and  _60
REMARK   21  A    between atoms: _63  and  _65
REMARK   22  A    between atoms: _65  and  _66
REMARK   23  A    between atoms: _65  and  _68
REMARK   24  A    between atoms: _68  and  _69
REMARK   25  A    between atoms: _74  and  _76
REMARK   26  A    between atoms: _76  and  _77
REMARK   27  A    between atoms: _76  and  _79
REMARK   28  A    between atoms: _79  and  _80
REMARK   29  A    between atoms: _83  and  _85
REMARK   30  A    between atoms: _85  and  _86
REMARK   31  A    between atoms: _85  and  _88
REMARK   32  A    between atoms: _88  and  _89
REMARK   33  A    between atoms: _89  and  _90
REMARK   34  A    between atoms: _95  and  _97
REMARK   35  A    between atoms: _97  and  _98
REMARK   36  A    between atoms: _97  and  _100
REMARK   37  A    between atoms: _100  and  _101
REMARK   38  A    between atoms: _107  and  _109
REMARK   39  A    between atoms: _120  and  _123
REMARK   40  A    between atoms: _123  and  _124
REMARK   41  A    between atoms: _132  and  _133
REMARK   42  A    between atoms: _141  and  _143
REMARK   43  A    between atoms: _143  and  _144
REMARK   44  A    between atoms: _143  and  _146
REMARK   45  A    between atoms: _146  and  _147
REMARK   46  A    between atoms: _147  and  _148
REMARK   47  A    between atoms: _151  and  _153
REMARK   48  A    between atoms: _153  and  _154
REMARK   49  A    between atoms: _153  and  _156
REMARK   50  A    between atoms: _156  and  _157
REMARK   51  A    between atoms: _162  and  _164
REMARK   52  A    between atoms: _164  and  _165
REMARK   53  A    between atoms: _164  and  _167
REMARK   54  A    between atoms: _167  and  _168
REMARK   55  A    between atoms: _168  and  _169
REMARK   56  A    between atoms: _172  and  _174
REMARK   57  A    between atoms: _174  and  _175
REMARK   58  A    between atoms: _174  and  _177
REMARK   59  A    between atoms: _177  and  _178
REMARK   60  A    between atoms: _181  and  _183
REMARK   61  A    between atoms: _183  and  _184
REMARK   62  A    between atoms: _183  and  _186
REMARK   63  A    between atoms: _186  and  _187
REMARK   64  A    between atoms: _188  and  ZN_420
REMARK   65  A    between atoms: _192  and  _194
REMARK   66  A    between atoms: _194  and  _195
REMARK   67  A    between atoms: _194  and  _197
REMARK   68  A    between atoms: _197  and  _198
REMARK   69  A    between atoms: _201  and  _203
REMARK   70  A    between atoms: _203  and  _204
REMARK   71  A    between atoms: _203  and  _206
REMARK   72  A    between atoms: _209  and  _211
REMARK   73  A    between atoms: _211  and  _212
REMARK   74  A    between atoms: _211  and  _214
REMARK   75  A    between atoms: _214  and  _215
REMARK   76  A    between atoms: _220  and  _222
REMARK   77  A    between atoms: _222  and  _223
REMARK   78  A    between atoms: _222  and  _225
REMARK   79  A    between atoms: _225  and  _226
REMARK   80  A    between atoms: _232  and  _234
REMARK   81  A    between atoms: _234  and  _235
REMARK   82  A    between atoms: _237  and  _239
REMARK   83  A    between atoms: _239  and  _240
REMARK   84  A    between atoms: _239  and  _242
REMARK   85  A    between atoms: _245  and  _247
REMARK   86  A    between atoms: _247  and  _248
REMARK   87  A    between atoms: _247  and  _250
REMARK   88  A    between atoms: _250  and  _251
REMARK   89  A    between atoms: _251  and  _252
REMARK   90  A    between atoms: _257  and  _259
REMARK   91  A    between atoms: _259  and  _260
REMARK   92  A    between atoms: _259  and  _262
REMARK   93  A    between atoms: _262  and  _263
REMARK   94  A    between atoms: _266  and  _268
REMARK   95  A    between atoms: _268  and  _269
REMARK   96  A    between atoms: _272  and  _274
REMARK   97  A    between atoms: _274  and  _275
REMARK   98  A    between atoms: _274  and  _277
REMARK   99  A    between atoms: _280  and  _282
REMARK  100  A    between atoms: _282  and  _283
REMARK  101  A    between atoms: _282  and  _285
REMARK  102  A    between atoms: _285  and  _286
REMARK  103  A    between atoms: _289  and  _291
REMARK  104  A    between atoms: _291  and  _292
REMARK  105  A    between atoms: _294  and  _296
REMARK  106  A    between atoms: _296  and  _297
REMARK  107  A    between atoms: _296  and  _299
REMARK  108  A    between atoms: _299  and  _300
REMARK  109  A    between atoms: _302  and  _304
REMARK  110  A    between atoms: _304  and  _305
REMARK  111  A    between atoms: _304  and  _307
REMARK  112  A    between atoms: _307  and  _308
REMARK  113  A    between atoms: _311  and  _313
REMARK  114  A    between atoms: _313  and  _314
REMARK  115  A    between atoms: _313  and  _316
REMARK  116  A    between atoms: _316  and  _317
REMARK  117  A    between atoms: _320  and  _322
REMARK  118  A    between atoms: _322  and  _323
REMARK  119  A    between atoms: _322  and  _325
REMARK  120  A    between atoms: _325  and  _326
REMARK  121  A    between atoms: _330  and  _331
REMARK  122  A    between atoms: _337  and  _338
REMARK  123  A    between atoms: _343  and  _345
REMARK  124  A    between atoms: _345  and  _346
REMARK  125  A    between atoms: _345  and  _348
REMARK  126  A    between atoms: _348  and  _349
REMARK  127  A    between atoms: _352  and  _354
REMARK  128  A    between atoms: _354  and  _355
REMARK  129  A    between atoms: _354  and  _357
REMARK  130  A    between atoms: _357  and  _358
REMARK  131  A    between atoms: _361  and  _363
REMARK  132  A    between atoms: _363  and  _364
REMARK  133  A    between atoms: _363  and  _366
REMARK  134  A    between atoms: _368  and  _370
REMARK  135  A    between atoms: _370  and  _371
REMARK  136  A    between atoms: _370  and  _373
REMARK  137  A    between atoms: _376  and  _378
REMARK  138  A    between atoms: _378  and  _379
REMARK  139  A    between atoms: _378  and  _381
REMARK  140  A    between atoms: _381  and  _382
REMARK  141  A    between atoms: _392  and  _394
REMARK  142  A    between atoms: _394  and  _395
REMARK  143  A    between atoms: _394  and  _397
REMARK  144  A    between atoms: _397  and  _398
REMARK  145  A    between atoms: _403  and  _405
REMARK  146  A    between atoms: _405  and  _406
REMARK  147  A    between atoms: _405  and  _408
REMARK  148  A    between atoms: _408  and  _409
REMARK  149  A    between atoms: _409  and  _410
REMARK  150  A    between atoms: _410  and  _411
REMARK                            x       y       z     vdW  Elec       q    Type
REMARK                         _______ _______ _______ _____ _____    ______ ____
ROOT
ATOM      1  CB  ASN A   1      -8.298   2.694   6.763  0.00  0.00    +0.110 C 
ENDROOT
BRANCH   1   2
ATOM      2  CG  ASN A   1      -7.156   2.468   7.729  0.00  0.00    +0.221 C 
ATOM      3  ND2 ASN A   1      -7.163   1.333   8.409  0.00  0.00    -0.329 N 
ATOM      4 HD21 ASN A   1      -6.407   1.133   9.095  0.00  0.00    +0.145 HD
ATOM      5 HD22 ASN A   1      -7.924   0.641   8.257  0.00  0.00    +0.145 HD
ATOM      6  OD1 ASN A   1      -6.278   3.323   7.870  0.00  0.00    -0.275 OA
ENDBRANCH   1   2
BRANCH   1   7
ATOM      7  CA  ASN A   1      -9.095   1.418   6.447  0.00  0.00    +0.142 C 
BRANCH   7   8
ATOM      8  N   ASN A   1      -8.273   0.459   5.721  0.00  0.00    -0.239 NA
ATOM      9  H   ASN A   1      -7.713   0.785   4.907  0.00  0.00    +0.142 HD
ENDBRANCH   7   8
BRANCH   7  10
ATOM     10  C   ASN A   1     -10.318   1.857   5.660  0.00  0.00    +0.225 C 
ATOM     11  O   ASN A   1     -10.201   2.248   4.499  0.00  0.00    -0.287 OA
ENDBRANCH   7  10
ENDBRANCH   1   7
TORSDOF 4
REMARK  Name = ../refined-set-2016/3ibu/3ibu_pocket.pdb
REMARK  150 active torsions:
REMARK  status: ('A' for Active; 'I' for Inactive)
REMARK    1  A    between atoms: _1  and  _3
REMARK    2  A    between atoms: _3  and  _4
REMARK    3  A    between atoms: _3  and  _6
REMARK    4  A    between atoms: _6  and  _7
REMARK    5  A    between atoms: _17  and  _19
REMARK    6  A    between atoms: _19  and  _20
REMARK    7  A    between atoms: _19  and  _22
REMARK    8  A    between atoms: _22  and  _23
REMARK    9  A    between atoms: _28  and  _29
REMARK   10  A    between atoms: _31  and  _33
REMARK   11  A    between atoms: _33  and  _34
REMARK   12  A    between atoms: _33  and  _36
REMARK   13  A    between atoms: _36  and  _37
REMARK   14  A    between atoms: _40  and  _41
REMARK   15  A    between atoms: _46  and  _48
REMARK   16  A    between atoms: _48  and  _49
REMARK   17  A    between atoms: _48  and  _51
REMARK   18  A    between atoms: _51  and  _52
REMARK   19  A    between atoms: _57  and  _59
REMARK   20  A    between atoms: _59  and  _60
REMARK   21  A    between atoms: _63  and  _65
REMARK   22  A    between atoms: _65  and  _66
REMARK   23  A    between atoms: _65  and  _68
REMARK   24  A    between atoms: _68  and  _69
REMARK   25  A    between atoms: _74  and  _76
REMARK   26  A    between atoms: _76  and  _77
REMARK   27  A    between atoms: _76  and  _79
REMARK   28  A    between atoms: _79  and  _80
REMARK   29  A    between atoms: _83  and  _85
REMARK   30  A    between atoms: _85  and  _86
REMARK   31  A    between atoms: _85  and  _88
REMARK   32  A    between atoms: _88  and  _89
REMARK   33  A    between atoms: _89  and  _90
REMARK   34  A    between atoms: _95  and  _97
REMARK   35  A    between atoms: _97  and  _98
REMARK   36  A    between atoms: _97  and  _100
REMARK   37  A    between atoms: _100  and  _101
REMARK   38  A    between atoms: _107  and  _109
REMARK   39  A    between atoms: _120  and  _123
REMARK   40  A    between atoms: _123  and  _124
REMARK   41  A    between atoms: _132  and  _133
REMARK   42  A    between atoms: _141  and  _143
REMARK   43  A    between atoms: _143  and  _144
REMARK   44  A    between atoms: _143  and  _146
REMARK   45  A    between atoms: _146  and  _147
REMARK   46  A    between atoms: _147  and  _148
REMARK   47  A    between atoms: _151  and  _153
REMARK   48  A    between atoms: _153  and  _154
REMARK   49  A    between atoms: _153  and  _156
REMARK   50  A    between atoms: _156  and  _157
REMARK   51  A    between atoms: _162  and  _164
REMARK   52  A    between atoms: _164  and  _165
REMARK   53  A    between atoms: _164  and  _167
REMARK   54  A    between atoms: _167  and  _168
REMARK   55  A    between atoms: _168  and  _169
REMARK   56  A    between atoms: _172  and  _174
REMARK   57  A    between atoms: _174  and  _175
REMARK   58  A    between atoms: _174  and  _177
REMARK   59  A    between atoms: _177  and  _178
REMARK   60  A    between atoms: _181  and  _183
REMARK   61  A    between atoms: _183  and  _184
REMARK   62  A    between atoms: _183  and  _186
REMARK   63  A    between atoms: _186  and  _187
REMARK   64  A    between atoms: _188  and  ZN_420
REMARK   65  A    between atoms: _192  and  _194
REMARK   66  A    between atoms: _194  and  _195
REMARK   67  A    between atoms: _194  and  _197
REMARK   68  A    between atoms: _197  and  _198
REMARK   69  A    between atoms: _201  and  _203
REMARK   70  A    between atoms: _203  and  _204
REMARK   71  A    between atoms: _203  and  _206
REMARK   72  A    between atoms: _209  and  _211
REMARK   73  A    between atoms: _211  and  _212
REMARK   74  A    between atoms: _211  and  _214
REMARK   75  A    between atoms: _214  and  _215
REMARK   76  A    between atoms: _220  and  _222
REMARK   77  A    between atoms: _222  and  _223
REMARK   78  A    between atoms: _222  and  _225
REMARK   79  A    between atoms: _225  and  _226
REMARK   80  A    between atoms: _232  and  _234
REMARK   81  A    between atoms: _234  and  _235
REMARK   82  A    between atoms: _237  and  _239
REMARK   83  A    between atoms: _239  and  _240
REMARK   84  A    between atoms: _239  and  _242
REMARK   85  A    between atoms: _245  and  _247
REMARK   86  A    between atoms: _247  and  _248
REMARK   87  A    between atoms: _247  and  _250
REMARK   88  A    between atoms: _250  and  _251
REMARK   89  A    between atoms: _251  and  _252
REMARK   90  A    between atoms: _257  and  _259
REMARK   91  A    between atoms: _259  and  _260
REMARK   92  A    between atoms: _259  and  _262
REMARK   93  A    between atoms: _262  and  _263
REMARK   94  A    between atoms: _266  and  _268
REMARK   95  A    between atoms: _268  and  _269
REMARK   96  A    between atoms: _272  and  _274
REMARK   97  A    between atoms: _274  and  _275
REMARK   98  A    between atoms: _274  and  _277
REMARK   99  A    between atoms: _280  and  _282
REMARK  100  A    between atoms: _282  and  _283
REMARK  101  A    between atoms: _282  and  _285
REMARK  102  A    between atoms: _285  and  _286
REMARK  103  A    between atoms: _289  and  _291
REMARK  104  A    between atoms: _291  and  _292
REMARK  105  A    between atoms: _294  and  _296
REMARK  106  A    between atoms: _296  and  _297
REMARK  107  A    between atoms: _296  and  _299
REMARK  108  A    between atoms: _299  and  _300
REMARK  109  A    between atoms: _302  and  _304
REMARK  110  A    between atoms: _304  and  _305
REMARK  111  A    between atoms: _304  and  _307
REMARK  112  A    between atoms: _307  and  _308
REMARK  113  A    between atoms: _311  and  _313
REMARK  114  A    between atoms: _313  and  _314
REMARK  115  A    between atoms: _313  and  _316
REMARK  116  A    between atoms: _316  and  _317
REMARK  117  A    between atoms: _320  and  _322
REMARK  118  A    between atoms: _322  and  _323
REMARK  119  A    between atoms: _322  and  _325
REMARK  120  A    between atoms: _325  and  _326
REMARK  121  A    between atoms: _330  and  _331
REMARK  122  A    between atoms: _337  and  _338
REMARK  123  A    between atoms: _343  and  _345
REMARK  124  A    between atoms: _345  and  _346
REMARK  125  A    between atoms: _345  and  _348
REMARK  126  A    between atoms: _348  and  _349
REMARK  127  A    between atoms: _352  and  _354
REMARK  128  A    between atoms: _354  and  _355
REMARK  129  A    between atoms: _354  and  _357
REMARK  130  A    between atoms: _357  and  _358
REMARK  131  A    between atoms: _361  and  _363
REMARK  132  A    between atoms: _363  and  _364
REMARK  133  A    between atoms: _363  and  _366
REMARK  134  A    between atoms: _368  and  _370
REMARK  135  A    between atoms: _370  and  _371
REMARK  136  A    between atoms: _370  and  _373
REMARK  137  A    between atoms: _376  and  _378
REMARK  138  A    between atoms: _378  and  _379
REMARK  139  A    between atoms: _378  and  _381
REMARK  140  A    between atoms: _381  and  _382
REMARK  141  A    between atoms: _392  and  _394
REMARK  142  A    between atoms: _394  and  _395
REMARK  143  A    between atoms: _394  and  _397
REMARK  144  A    between atoms: _397  and  _398
REMARK  145  A    between atoms: _403  and  _405
REMARK  146  A    between atoms: _405  and  _406
REMARK  147  A    between atoms: _405  and  _408
REMARK  148  A    between atoms: _408  and  _409
REMARK  149  A    between atoms: _409  and  _410
REMARK  150  A    between atoms: _410  and  _411
REMARK                            x       y       z     vdW  Elec       q    Type
REMARK                         _______ _______ _______ _____ _____    ______ ____
ROOT
ATOM      1  C   UNK A   4     -10.217  -1.475  10.199  0.00  0.00    +0.000 C 
ATOM      2  C   UNK A   4     -10.265  -2.742  11.034  0.00  0.00    +0.000 C 
ATOM      3  O   UNK A   4     -10.884  -2.770  12.099  0.00  0.00    +0.000 OA
ATOM      4  N   VAL A   5      -9.599  -3.784  10.552  0.00  0.00    +0.000 N 
ATOM      5  CA  VAL A   5      -9.568  -5.057  11.257  0.00  0.00    +0.000 C 
ATOM      6  C   VAL A   5      -8.144  -5.564  11.463  0.00  0.00    +0.000 C 
ATOM      7  N   UNK A   6      -8.037  -6.574  12.321  0.00  0.00    +0.000 N 
ATOM      8  H   UNK A   6      -8.894  -6.883  12.822  0.00  0.00    +0.000 HD
ATOM      9  C   UNK A   6      -6.788  -7.275  12.601  0.00  0.00    +0.000 C 
ATOM     10  C   UNK A   6      -6.297  -7.000  14.022  0.00  0.00    +0.000 C 
ATOM     11  C   UNK A   6      -5.944  -5.570  14.266  0.00  0.00    +0.000 A 
ATOM     12  C   UNK A   6      -6.708  -4.525  14.661  0.00  0.00    +0.000 A 
ATOM     13  N   UNK A   6      -5.898  -3.416  14.685  0.00  0.00    +0.000 N 
ATOM     14 ZN   UNK A   6      -6.671  -1.635  15.251  0.00  0.00    +0.000 Zn
ATOM     15  N   UNK A   4      -7.326  -0.797  13.525  0.00  0.00    +0.000 N 
ATOM     16  C   UNK A   4      -7.877   0.398  13.403  0.00  0.00    +0.000 A 
ATOM     17  N   UNK A   4      -8.415   0.489  12.199  0.00  0.00    +0.000 NA
ATOM     18  C   UNK A   4      -8.209  -0.691  11.518  0.00  0.00    +0.000 A 
ATOM     19  C   UNK A   4      -7.515  -1.494  12.357  0.00  0.00    +0.000 A 
ATOM     20  C   UNK A   6      -4.678  -3.768  14.320  0.00  0.00    +0.000 A 
ATOM     21  N   UNK A   6      -4.678  -5.064  14.060  0.00  0.00    +0.000 NA
ATOM     22  O   VAL A   5      -7.188  -5.066  10.868  0.00  0.00    +0.000 OA
ATOM     23  H   VAL A   5      -9.088  -3.689   9.651  0.00  0.00    +0.000 HD
ATOM     24  C   UNK A   4      -8.781  -0.952  10.161  0.00  0.00    +0.000 C 
ENDROOT
BRANCH  14  25
ATOM     25  N   UNK A   6      -8.136  -2.340  16.527  0.00  0.00    +0.000 N 
ATOM     26  C   UNK A   6      -7.827  -3.235  17.446  0.00  0.00    +0.000 A 
ATOM     27  N   UNK A   6      -8.942  -3.638  18.027  0.00  0.00    +0.000 NA
ATOM     28  C   UNK A   6     -10.006  -2.978  17.462  0.00  0.00    +0.000 A 
ATOM     29  C   UNK A   6      -9.504  -2.156  16.510  0.00  0.00    +0.000 A 
BRANCH  29  30
ATOM     30  C   UNK A   6     -10.183  -1.200  15.582  0.00  0.00    +0.000 C 
BRANCH  30  31
ATOM     31  C   UNK A   6     -11.694  -1.423  15.466  0.00  0.00    +0.000 C 
BRANCH  31  32
ATOM     32  C   UNK A   6     -12.326  -0.208  14.807  0.00  0.00    +0.000 C 
ATOM     33  N   UNK A   4     -13.283   0.400  15.500  0.00  0.00    +0.000 N 
ATOM     34  H   UNK A   4     -13.567   0.005  16.419  0.00  0.00    +0.000 HD
ATOM     35  O   UNK A   6     -11.967   0.151  13.683  0.00  0.00    +0.000 OA
BRANCH  33  36
ATOM     36  C   UNK A   4     -13.948   1.604  15.013  0.00  0.00    +0.000 C 
BRANCH  36  37
ATOM     37  C   UNK A   4     -13.295   2.733  15.809  0.00  0.00    +0.000 C 
ATOM     38  O   UNK A   4     -13.480   2.844  17.022  0.00  0.00    +0.000 OA
ATOM     39  N   VAL A   5     -12.508   3.549  15.111  0.00  0.00    +0.000 N 
ATOM     40  H   VAL A   5     -12.430   3.404  14.084  0.00  0.00    +0.000 HD
BRANCH  39  41
ATOM     41  CA  VAL A   5     -11.748   4.639  15.720  0.00  0.00    +0.000 C 
BRANCH  41  42
ATOM     42  C   VAL A   5     -12.482   5.976  15.757  0.00  0.00    +0.000 C 
ATOM     43  N   UNK A   6     -12.543   6.581  16.943  0.00  0.00    +0.000 N 
ATOM     44  H   UNK A   6     -12.090   6.124  17.760  0.00  0.00    +0.000 HD
ATOM     45  O   VAL A   5     -12.966   6.449  14.727  0.00  0.00    +0.000 OA
BRANCH  43  46
ATOM     46  C   UNK A   6     -13.221   7.863  17.143  0.00  0.00    +0.000 C 
BRANCH  46  47
ATOM     47  C   UNK A   6     -12.325   8.854  17.882  0.00  0.00    +0.000 C 
ATOM     48  O   UNK A   6     -11.532   8.457  18.737  0.00  0.00    +0.000 OA
ENDBRANCH  46  47
BRANCH  46  49
ATOM     49  C   UNK A   6     -14.494   7.697  17.990  0.00  0.00    +0.000 C 
BRANCH  49  50
ATOM     50  C   UNK A   6     -15.368   6.550  17.585  0.00  0.00    +0.000 A 
ATOM     51  N   UNK A   6     -15.031   5.235  17.826  0.00  0.00    +0.000 NA
ATOM     52  C   UNK A   6     -16.003   4.449  17.399  0.00  0.00    +0.000 A 
ATOM     53  N   UNK A   6     -16.958   5.205  16.888  0.00  0.00    +0.000 NA
ATOM     54  C   UNK A   6     -16.585   6.524  16.990  0.00  0.00    +0.000 A 
ENDBRANCH  49  50
ENDBRANCH  46  49
ENDBRANCH  43  46
ENDBRANCH  41  42
BRANCH  41  55
ATOM     55  CB  VAL A   5     -10.406   4.810  14.969  0.00  0.00    +0.000 C 
ATOM     56  CG2 VAL A   5      -9.528   5.833  15.673  0.00  0.00    +0.000 C 
ATOM     57  CG1 VAL A   5      -9.703   3.464  14.862  0.00  0.00    +0.000 C 
ENDBRANCH  41  55
ENDBRANCH  39  41
ENDBRANCH  36  37
BRANCH  36  58
ATOM     58  C   UNK A   4     -15.456   1.517  15.269  0.00  0.00    +0.000 C 
BRANCH  58  59
ATOM     59  C   UNK A   4     -16.153   0.454  14.402  0.00  0.00    +0.000 C 
ATOM     60  C   UNK A   4     -17.066  -0.402  15.259  0.00  0.00    +0.000 C 
ATOM     61  C   UNK A   4     -16.935   1.130  13.276  0.00  0.00    +0.000 C 
ENDBRANCH  58  59
ENDBRANCH  36  58
ENDBRANCH  33  36
ENDBRANCH  31  32
BRANCH  31  62
ATOM     62  N   UNK A   6     -11.967  -2.632  14.697  0.00  0.00    +0.000 N 
ATOM     63  C   LEU A   2     -12.582  -3.687  15.221  0.00  0.00    +0.000 C 
ATOM     64  O   LEU A   2     -12.956  -3.737  16.394  0.00  0.00    +0.000 OA
ATOM     65  H   UNK A   6     -11.669  -2.670  13.701  0.00  0.00    +0.000 HD
BRANCH  63  66
ATOM     66  CA  LEU A   2     -12.810  -4.868  14.287  0.00  0.00    +0.000 C 
BRANCH  66  67
ATOM     67  N   LEU A   2     -12.440  -6.093  14.979  0.00  0.00    +0.000 N 
ATOM     68  H   LEU A   2     -13.140  -6.534  15.608  0.00  0.00    +0.000 HD
ATOM     69  C   GLU A   1     -11.256  -6.676  14.849  0.00  0.00    +0.000 C 
ATOM     70  O   GLU A   1     -10.361  -6.257  14.104  0.00  0.00    +0.000 OA
BRANCH  69  71
ATOM     71  CA  GLU A   1     -11.066  -7.938  15.673  0.00  0.00    +0.000 C 
BRANCH  71  72
ATOM     72  N   GLU A   1     -10.548  -8.995  14.818  0.00  0.00    +0.000 NA
ATOM     73  H   GLU A   1      -9.904  -8.748  14.040  0.00  0.00    +0.000 HD
ENDBRANCH  71  72
BRANCH  71  74
ATOM     74  CB  GLU A   1     -10.098  -7.682  16.834  0.00  0.00    +0.000 C 
BRANCH  74  75
ATOM     75  CG  GLU A   1     -10.631  -6.772  17.933  0.00  0.00    +0.000 C 
BRANCH  75  76
ATOM     76  CD  GLU A   1      -9.668  -6.660  19.104  0.00  0.00    +0.000 C 
ATOM     77  OE2 GLU A   1      -9.594  -5.576  19.725  0.00  0.00    +0.000 OA
ATOM     78  OE1 GLU A   1      -8.996  -7.665  19.408  0.00  0.00    +0.000 OA
ENDBRANCH  75  76
ENDBRANCH  74  75
ENDBRANCH  71  74
ENDBRANCH  69  71
ENDBRANCH  66  67
BRANCH  66  79
ATOM     79  CB  LEU A   2     -14.288  -4.930  13.898  0.00  0.00    +0.000 C 
BRANCH  79  80
ATOM     80  CG  LEU A   2     -15.004  -3.634  13.508  0.00  0.00    +0.000 C 
ATOM     81  CD2 LEU A   2     -16.476  -3.947  13.234  0.00  0.00    +0.000 C 
ATOM     82  CD1 LEU A   2     -14.341  -3.013  12.286  0.00  0.00    +0.000 C 
ENDBRANCH  79  80
ENDBRANCH  66  79
ENDBRANCH  63  66
ENDBRANCH  31  62
ENDBRANCH  30  31
ENDBRANCH  29  30
ENDBRANCH  14  25
BRANCH   1  84
ATOM     83  C   UNK A   3     -11.617   0.512  10.182  0.00  0.00    +0.000 C 
ATOM     84  N   UNK A   4     -11.095  -0.514  10.838  0.00  0.00    +0.000 N 
ATOM     85  H   UNK A   4     -11.323  -0.634  11.846  0.00  0.00    +0.000 HD
ATOM     86  O   UNK A   3     -11.368   0.752   8.995  0.00  0.00    +0.000 OA
BRANCH  83  87
ATOM     87  C   UNK A   3     -12.512   1.428  11.000  0.00  0.00    +0.000 C 
BRANCH  87  90
ATOM     88  C   LEU A   2     -12.453   3.846  11.082  0.00  0.00    +0.000 C 
ATOM     89  O   LEU A   2     -12.536   3.863  12.308  0.00  0.00    +0.000 OA
ATOM     90  N   UNK A   3     -12.522   2.734  10.359  0.00  0.00    +0.000 N 
ATOM     91  H   UNK A   3     -12.584   2.798   9.323  0.00  0.00    +0.000 HD
BRANCH  88  92
ATOM     92  CA  LEU A   2     -12.322   5.135  10.302  0.00  0.00    +0.000 C 
BRANCH  92  94
ATOM     93  C   GLU A   1     -12.718   7.508  10.609  0.00  0.00    +0.000 C 
ATOM     94  N   LEU A   2     -12.629   6.290  11.137  0.00  0.00    +0.000 N 
ATOM     95  H   LEU A   2     -12.780   6.160  12.158  0.00  0.00    +0.000 HD
ATOM     96  O   GLU A   1     -12.575   7.712   9.406  0.00  0.00    +0.000 OA
BRANCH  93  97
ATOM     97  CA  GLU A   1     -13.043   8.663  11.556  0.00  0.00    +0.000 C 
BRANCH  97  98
ATOM     98  CB  GLU A   1     -11.730   9.320  12.081  0.00  0.00    +0.000 C 
ATOM     99  CG2 GLU A   1     -10.991   8.371  13.011  0.00  0.00    +0.000 C 
BRANCH  98 100
ATOM    100  CG1 GLU A   1     -10.838   9.725  10.905  0.00  0.00    +0.000 C 
ATOM    101  CD1 GLU A   1      -9.698  10.646  11.300  0.00  0.00    +0.000 C 
ENDBRANCH  98 100
ENDBRANCH  97  98
BRANCH  97 102
ATOM    102  N   GLU A   1     -13.901   8.239  12.650  0.00  0.00    +0.000 NA
ATOM    103  H   GLU A   1     -13.540   7.561  13.351  0.00  0.00    +0.000 HD
ENDBRANCH  97 102
ENDBRANCH  93  97
ENDBRANCH  92  94
BRANCH  92 104
ATOM    104  CB  LEU A   2     -10.879   5.223   9.786  0.00  0.00    +0.000 C 
BRANCH 104 105
ATOM    105  CG  LEU A   2      -9.807   5.231  10.895  0.00  0.00    +0.000 C 
BRANCH 105 106
ATOM    106  CD  LEU A   2      -9.035   3.919  11.023  0.00  0.00    +0.000 C 
ATOM    107  OE1 LEU A   2      -9.622   2.845  11.150  0.00  0.00    +0.000 OA
ATOM    108  NE2 LEU A   2      -7.709   4.009  11.004  0.00  0.00    +0.000 N 
ATOM    109 HE21 LEU A   2      -7.128   3.151  11.099  0.00  0.00    +0.000 HD
ATOM    110 HE22 LEU A   2      -7.252   4.937  10.895  0.00  0.00    +0.000 HD
ENDBRANCH 105 106
ENDBRANCH 104 105
ENDBRANCH  92 104
ENDBRANCH  88  92
ENDBRANCH  87  90
BRANCH  87 111
ATOM    111  C   UNK A   3     -13.928   0.839  11.212  0.00  0.00    +0.000 C 
BRANCH 111 112
ATOM    112  C   UNK A   3     -14.614   0.335   9.968  0.00  0.00    +0.000 A 
ATOM    113  C   UNK A   3     -15.746   0.987   9.486  0.00  0.00    +0.000 A 
ATOM    114  C   UNK A   3     -16.451   0.484   8.391  0.00  0.00    +0.000 A 
ATOM    115  C   UNK A   3     -16.021  -0.680   7.764  0.00  0.00    +0.000 A 
ATOM    116  C   UNK A   3     -14.890  -1.338   8.232  0.00  0.00    +0.000 A 
ATOM    117  C   UNK A   3     -14.190  -0.828   9.330  0.00  0.00    +0.000 A 
ENDBRANCH 111 112
ENDBRANCH  87 111
ENDBRANCH  83  87
ENDBRANCH   1  84
BRANCH   9 118
ATOM    118  C   UNK A   6      -7.238  -8.724  12.479  0.00  0.00    +0.000 C 
ATOM    119  O   UNK A   6      -8.280  -9.089  13.018  0.00  0.00    +0.000 OA
ENDBRANCH   9 118
BRANCH   5 120
ATOM    120  CB  VAL A   5     -10.308  -6.154  10.472  0.00  0.00    +0.000 C 
BRANCH 120 121
ATOM    121  CG  VAL A   5     -11.741  -5.835  10.132  0.00  0.00    +0.000 A 
ATOM    122  CD2 VAL A   5     -12.782  -6.451  10.821  0.00  0.00    +0.000 A 
ATOM    123  CE2 VAL A   5     -14.110  -6.221  10.474  0.00  0.00    +0.000 A 
ATOM    124  CZ  VAL A   5     -14.410  -5.361   9.424  0.00  0.00    +0.000 A 
ATOM    125  CE1 VAL A   5     -13.382  -4.735   8.728  0.00  0.00    +0.000 A 
ATOM    126  CD1 VAL A   5     -12.053  -4.972   9.083  0.00  0.00    +0.000 A 
ENDBRANCH 120 121
ENDBRANCH   5 120
TORSDOF 42
REMARK  Name = ../refined-set-2016/3ibu/3ibu_pocket.pdb
REMARK  150 active torsions:
REMARK  status: ('A' for Active; 'I' for Inactive)
REMARK    1  A    between atoms: _1  and  _3
REMARK    2  A    between atoms: _3  and  _4
REMARK    3  A    between atoms: _3  and  _6
REMARK    4  A    between atoms: _6  and  _7
REMARK    5  A    between atoms: _17  and  _19
REMARK    6  A    between atoms: _19  and  _20
REMARK    7  A    between atoms: _19  and  _22
REMARK    8  A    between atoms: _22  and  _23
REMARK    9  A    between atoms: _28  and  _29
REMARK   10  A    between atoms: _31  and  _33
REMARK   11  A    between atoms: _33  and  _34
REMARK   12  A    between atoms: _33  and  _36
REMARK   13  A    between atoms: _36  and  _37
REMARK   14  A    between atoms: _40  and  _41
REMARK   15  A    between atoms: _46  and  _48
REMARK   16  A    between atoms: _48  and  _49
REMARK   17  A    between atoms: _48  and  _51
REMARK   18  A    between atoms: _51  and  _52
REMARK   19  A    between atoms: _57  and  _59
REMARK   20  A    between atoms: _59  and  _60
REMARK   21  A    between atoms: _63  and  _65
REMARK   22  A    between atoms: _65  and  _66
REMARK   23  A    between atoms: _65  and  _68
REMARK   24  A    between atoms: _68  and  _69
REMARK   25  A    between atoms: _74  and  _76
REMARK   26  A    between atoms: _76  and  _77
REMARK   27  A    between atoms: _76  and  _79
REMARK   28  A    between atoms: _79  and  _80
REMARK   29  A    between atoms: _83  and  _85
REMARK   30  A    between atoms: _85  and  _86
REMARK   31  A    between atoms: _85  and  _88
REMARK   32  A    between atoms: _88  and  _89
REMARK   33  A    between atoms: _89  and  _90
REMARK   34  A    between atoms: _95  and  _97
REMARK   35  A    between atoms: _97  and  _98
REMARK   36  A    between atoms: _97  and  _100
REMARK   37  A    between atoms: _100  and  _101
REMARK   38  A    between atoms: _107  and  _109
REMARK   39  A    between atoms: _120  and  _123
REMARK   40  A    between atoms: _123  and  _124
REMARK   41  A    between atoms: _132  and  _133
REMARK   42  A    between atoms: _141  and  _143
REMARK   43  A    between atoms: _143  and  _144
REMARK   44  A    between atoms: _143  and  _146
REMARK   45  A    between atoms: _146  and  _147
REMARK   46  A    between atoms: _147  and  _148
REMARK   47  A    between atoms: _151  and  _153
REMARK   48  A    between atoms: _153  and  _154
REMARK   49  A    between atoms: _153  and  _156
REMARK   50  A    between atoms: _156  and  _157
REMARK   51  A    between atoms: _162  and  _164
REMARK   52  A    between atoms: _164  and  _165
REMARK   53  A    between atoms: _164  and  _167
REMARK   54  A    between atoms: _167  and  _168
REMARK   55  A    between atoms: _168  and  _169
REMARK   56  A    between atoms: _172  and  _174
REMARK   57  A    between atoms: _174  and  _175
REMARK   58  A    between atoms: _174  and  _177
REMARK   59  A    between atoms: _177  and  _178
REMARK   60  A    between atoms: _181  and  _183
REMARK   61  A    between atoms: _183  and  _184
REMARK   62  A    between atoms: _183  and  _186
REMARK   63  A    between atoms: _186  and  _187
REMARK   64  A    between atoms: _188  and  ZN_420
REMARK   65  A    between atoms: _192  and  _194
REMARK   66  A    between atoms: _194  and  _195
REMARK   67  A    between atoms: _194  and  _197
REMARK   68  A    between atoms: _197  and  _198
REMARK   69  A    between atoms: _201  and  _203
REMARK   70  A    between atoms: _203  and  _204
REMARK   71  A    between atoms: _203  and  _206
REMARK   72  A    between atoms: _209  and  _211
REMARK   73  A    between atoms: _211  and  _212
REMARK   74  A    between atoms: _211  and  _214
REMARK   75  A    between atoms: _214  and  _215
REMARK   76  A    between atoms: _220  and  _222
REMARK   77  A    between atoms: _222  and  _223
REMARK   78  A    between atoms: _222  and  _225
REMARK   79  A    between atoms: _225  and  _226
REMARK   80  A    between atoms: _232  and  _234
REMARK   81  A    between atoms: _234  and  _235
REMARK   82  A    between atoms: _237  and  _239
REMARK   83  A    between atoms: _239  and  _240
REMARK   84  A    between atoms: _239  and  _242
REMARK   85  A    between atoms: _245  and  _247
REMARK   86  A    between atoms: _247  and  _248
REMARK   87  A    between atoms: _247  and  _250
REMARK   88  A    between atoms: _250  and  _251
REMARK   89  A    between atoms: _251  and  _252
REMARK   90  A    between atoms: _257  and  _259
REMARK   91  A    between atoms: _259  and  _260
REMARK   92  A    between atoms: _259  and  _262
REMARK   93  A    between atoms: _262  and  _263
REMARK   94  A    between atoms: _266  and  _268
REMARK   95  A    between atoms: _268  and  _269
REMARK   96  A    between atoms: _272  and  _274
REMARK   97  A    between atoms: _274  and  _275
REMARK   98  A    between atoms: _274  and  _277
REMARK   99  A    between atoms: _280  and  _282
REMARK  100  A    between atoms: _282  and  _283
REMARK  101  A    between atoms: _282  and  _285
REMARK  102  A    between atoms: _285  and  _286
REMARK  103  A    between atoms: _289  and  _291
REMARK  104  A    between atoms: _291  and  _292
REMARK  105  A    between atoms: _294  and  _296
REMARK  106  A    between atoms: _296  and  _297
REMARK  107  A    between atoms: _296  and  _299
REMARK  108  A    between atoms: _299  and  _300
REMARK  109  A    between atoms: _302  and  _304
REMARK  110  A    between atoms: _304  and  _305
REMARK  111  A    between atoms: _304  and  _307
REMARK  112  A    between atoms: _307  and  _308
REMARK  113  A    between atoms: _311  and  _313
REMARK  114  A    between atoms: _313  and  _314
REMARK  115  A    between atoms: _313  and  _316
REMARK  116  A    between atoms: _316  and  _317
REMARK  117  A    between atoms: _320  and  _322
REMARK  118  A    between atoms: _322  and  _323
REMARK  119  A    between atoms: _322  and  _325
REMARK  120  A    between atoms: _325  and  _326
REMARK  121  A    between atoms: _330  and  _331
REMARK  122  A    between atoms: _337  and  _338
REMARK  123  A    between atoms: _343  and  _345
REMARK  124  A    between atoms: _345  and  _346
REMARK  125  A    between atoms: _345  and  _348
REMARK  126  A    between atoms: _348  and  _349
REMARK  127  A    between atoms: _352  and  _354
REMARK  128  A    between atoms: _354  and  _355
REMARK  129  A    between atoms: _354  and  _357
REMARK  130  A    between atoms: _357  and  _358
REMARK  131  A    between atoms: _361  and  _363
REMARK  132  A    between atoms: _363  and  _364
REMARK  133  A    between atoms: _363  and  _366
REMARK  134  A    between atoms: _368  and  _370
REMARK  135  A    between atoms: _370  and  _371
REMARK  136  A    between atoms: _370  and  _373
REMARK  137  A    between atoms: _376  and  _378
REMARK  138  A    between atoms: _378  and  _379
REMARK  139  A    between atoms: _378  and  _381
REMARK  140  A    between atoms: _381  and  _382
REMARK  141  A    between atoms: _392  and  _394
REMARK  142  A    between atoms: _394  and  _395
REMARK  143  A    between atoms: _394  and  _397
REMARK  144  A    between atoms: _397  and  _398
REMARK  145  A    between atoms: _403  and  _405
REMARK  146  A    between atoms: _405  and  _406
REMARK  147  A    between atoms: _405  and  _408
REMARK  148  A    between atoms: _408  and  _409
REMARK  149  A    between atoms: _409  and  _410
REMARK  150  A    between atoms: _410  and  _411
REMARK                            x       y       z     vdW  Elec       q    Type
REMARK                         _______ _______ _______ _____ _____    ______ ____
ROOT
ATOM      1  C   GLU A   1      -5.879  -8.499  21.025  0.00  0.00    +0.238 C 
ATOM      2  O   GLU A   1      -5.077  -9.006  21.804  0.00  0.00    -0.274 OA
ATOM      3  N   HIS A   2      -7.080  -8.090  21.413  0.00  0.00    -0.298 N 
ATOM      4  H   HIS A   2      -7.714  -7.606  20.745  0.00  0.00    +0.150 HD
ENDROOT
BRANCH   1   5
ATOM      5  CA  GLU A   1      -5.526  -8.318  19.556  0.00  0.00    +0.145 C 
BRANCH   5   6
ATOM      6  N   GLU A   1      -6.571  -8.960  18.774  0.00  0.00    -0.238 NA
ATOM      7  H   GLU A   1      -7.426  -8.421  18.529  0.00  0.00    +0.142 HD
ENDBRANCH   5   6
BRANCH   5   8
ATOM      8  CB  GLU A   1      -5.410  -6.846  19.158  0.00  0.00    +0.038 C 
BRANCH   8   9
ATOM      9  CG  GLU A   1      -4.998  -6.702  17.695  0.00  0.00    +0.116 C 
BRANCH   9  10
ATOM     10  CD  GLU A   1      -4.320  -5.392  17.393  0.00  0.00    +0.365 C 
ATOM     11  OE2 GLU A   1      -4.933  -4.335  17.640  0.00  0.00    -0.246 OA
ATOM     12  OE1 GLU A   1      -3.171  -5.427  16.900  0.00  0.00    -0.246 OA
ENDBRANCH   9  10
ENDBRANCH   8   9
ENDBRANCH   5   8
ENDBRANCH   1   5
BRANCH   3  13
ATOM     13  CA  HIS A   2      -7.496  -8.328  22.781  0.00  0.00    +0.143 C 
BRANCH  13  14
ATOM     14  C   HIS A   2      -7.849  -9.800  22.853  0.00  0.00    +0.227 C 
ATOM     15  O   HIS A   2      -8.200 -10.413  21.838  0.00  0.00    -0.286 OA
ENDBRANCH  13  14
BRANCH  13  16
ATOM     16  CB  HIS A   2      -8.729  -7.505  23.142  0.00  0.00    +0.075 C 
BRANCH  16  17
ATOM     17  CG  HIS A   2      -8.437  -6.051  23.302  0.00  0.00    +0.082 A 
ATOM     18  CD2 HIS A   2      -8.019  -5.346  24.380  0.00  0.00    +0.115 A 
ATOM     19  NE2 HIS A   2      -7.800  -4.058  23.960  0.00  0.00    -0.221 NA
ATOM     20  CE1 HIS A   2      -8.078  -3.974  22.671  0.00  0.00    +0.199 A 
ATOM     21  ND1 HIS A   2      -8.467  -5.165  22.249  0.00  0.00    -0.227 NA
ENDBRANCH  16  17
ENDBRANCH  13  16
ENDBRANCH   3  13
TORSDOF 9
REMARK  Name = ../refined-set-2016/3ibu/3ibu_pocket.pdb
REMARK  150 active torsions:
REMARK  status: ('A' for Active; 'I' for Inactive)
REMARK    1  A    between atoms: _1  and  _3
REMARK    2  A    between atoms: _3  and  _4
REMARK    3  A    between atoms: _3  and  _6
REMARK    4  A    between atoms: _6  and  _7
REMARK    5  A    between atoms: _17  and  _19
REMARK    6  A    between atoms: _19  and  _20
REMARK    7  A    between atoms: _19  and  _22
REMARK    8  A    between atoms: _22  and  _23
REMARK    9  A    between atoms: _28  and  _29
REMARK   10  A    between atoms: _31  and  _33
REMARK   11  A    between atoms: _33  and  _34
REMARK   12  A    between atoms: _33  and  _36
REMARK   13  A    between atoms: _36  and  _37
REMARK   14  A    between atoms: _40  and  _41
REMARK   15  A    between atoms: _46  and  _48
REMARK   16  A    between atoms: _48  and  _49
REMARK   17  A    between atoms: _48  and  _51
REMARK   18  A    between atoms: _51  and  _52
REMARK   19  A    between atoms: _57  and  _59
REMARK   20  A    between atoms: _59  and  _60
REMARK   21  A    between atoms: _63  and  _65
REMARK   22  A    between atoms: _65  and  _66
REMARK   23  A    between atoms: _65  and  _68
REMARK   24  A    between atoms: _68  and  _69
REMARK   25  A    between atoms: _74  and  _76
REMARK   26  A    between atoms: _76  and  _77
REMARK   27  A    between atoms: _76  and  _79
REMARK   28  A    between atoms: _79  and  _80
REMARK   29  A    between atoms: _83  and  _85
REMARK   30  A    between atoms: _85  and  _86
REMARK   31  A    between atoms: _85  and  _88
REMARK   32  A    between atoms: _88  and  _89
REMARK   33  A    between atoms: _89  and  _90
REMARK   34  A    between atoms: _95  and  _97
REMARK   35  A    between atoms: _97  and  _98
REMARK   36  A    between atoms: _97  and  _100
REMARK   37  A    between atoms: _100  and  _101
REMARK   38  A    between atoms: _107  and  _109
REMARK   39  A    between atoms: _120  and  _123
REMARK   40  A    between atoms: _123  and  _124
REMARK   41  A    between atoms: _132  and  _133
REMARK   42  A    between atoms: _141  and  _143
REMARK   43  A    between atoms: _143  and  _144
REMARK   44  A    between atoms: _143  and  _146
REMARK   45  A    between atoms: _146  and  _147
REMARK   46  A    between atoms: _147  and  _148
REMARK   47  A    between atoms: _151  and  _153
REMARK   48  A    between atoms: _153  and  _154
REMARK   49  A    between atoms: _153  and  _156
REMARK   50  A    between atoms: _156  and  _157
REMARK   51  A    between atoms: _162  and  _164
REMARK   52  A    between atoms: _164  and  _165
REMARK   53  A    between atoms: _164  and  _167
REMARK   54  A    between atoms: _167  and  _168
REMARK   55  A    between atoms: _168  and  _169
REMARK   56  A    between atoms: _172  and  _174
REMARK   57  A    between atoms: _174  and  _175
REMARK   58  A    between atoms: _174  and  _177
REMARK   59  A    between atoms: _177  and  _178
REMARK   60  A    between atoms: _181  and  _183
REMARK   61  A    between atoms: _183  and  _184
REMARK   62  A    between atoms: _183  and  _186
REMARK   63  A    between atoms: _186  and  _187
REMARK   64  A    between atoms: _188  and  ZN_420
REMARK   65  A    between atoms: _192  and  _194
REMARK   66  A    between atoms: _194  and  _195
REMARK   67  A    between atoms: _194  and  _197
REMARK   68  A    between atoms: _197  and  _198
REMARK   69  A    between atoms: _201  and  _203
REMARK   70  A    between atoms: _203  and  _204
REMARK   71  A    between atoms: _203  and  _206
REMARK   72  A    between atoms: _209  and  _211
REMARK   73  A    between atoms: _211  and  _212
REMARK   74  A    between atoms: _211  and  _214
REMARK   75  A    between atoms: _214  and  _215
REMARK   76  A    between atoms: _220  and  _222
REMARK   77  A    between atoms: _222  and  _223
REMARK   78  A    between atoms: _222  and  _225
REMARK   79  A    between atoms: _225  and  _226
REMARK   80  A    between atoms: _232  and  _234
REMARK   81  A    between atoms: _234  and  _235
REMARK   82  A    between atoms: _237  and  _239
REMARK   83  A    between atoms: _239  and  _240
REMARK   84  A    between atoms: _239  and  _242
REMARK   85  A    between atoms: _245  and  _247
REMARK   86  A    between atoms: _247  and  _248
REMARK   87  A    between atoms: _247  and  _250
REMARK   88  A    between atoms: _250  and  _251
REMARK   89  A    between atoms: _251  and  _252
REMARK   90  A    between atoms: _257  and  _259
REMARK   91  A    between atoms: _259  and  _260
REMARK   92  A    between atoms: _259  and  _262
REMARK   93  A    between atoms: _262  and  _263
REMARK   94  A    between atoms: _266  and  _268
REMARK   95  A    between atoms: _268  and  _269
REMARK   96  A    between atoms: _272  and  _274
REMARK   97  A    between atoms: _274  and  _275
REMARK   98  A    between atoms: _274  and  _277
REMARK   99  A    between atoms: _280  and  _282
REMARK  100  A    between atoms: _282  and  _283
REMARK  101  A    between atoms: _282  and  _285
REMARK  102  A    between atoms: _285  and  _286
REMARK  103  A    between atoms: _289  and  _291
REMARK  104  A    between atoms: _291  and  _292
REMARK  105  A    between atoms: _294  and  _296
REMARK  106  A    between atoms: _296  and  _297
REMARK  107  A    between atoms: _296  and  _299
REMARK  108  A    between atoms: _299  and  _300
REMARK  109  A    between atoms: _302  and  _304
REMARK  110  A    between atoms: _304  and  _305
REMARK  111  A    between atoms: _304  and  _307
REMARK  112  A    between atoms: _307  and  _308
REMARK  113  A    between atoms: _311  and  _313
REMARK  114  A    between atoms: _313  and  _314
REMARK  115  A    between atoms: _313  and  _316
REMARK  116  A    between atoms: _316  and  _317
REMARK  117  A    between atoms: _320  and  _322
REMARK  118  A    between atoms: _322  and  _323
REMARK  119  A    between atoms: _322  and  _325
REMARK  120  A    between atoms: _325  and  _326
REMARK  121  A    between atoms: _330  and  _331
REMARK  122  A    between atoms: _337  and  _338
REMARK  123  A    between atoms: _343  and  _345
REMARK  124  A    between atoms: _345  and  _346
REMARK  125  A    between atoms: _345  and  _348
REMARK  126  A    between atoms: _348  and  _349
REMARK  127  A    between atoms: _352  and  _354
REMARK  128  A    between atoms: _354  and  _355
REMARK  129  A    between atoms: _354  and  _357
REMARK  130  A    between atoms: _357  and  _358
REMARK  131  A    between atoms: _361  and  _363
REMARK  132  A    between atoms: _363  and  _364
REMARK  133  A    between atoms: _363  and  _366
REMARK  134  A    between atoms: _368  and  _370
REMARK  135  A    between atoms: _370  and  _371
REMARK  136  A    between atoms: _370  and  _373
REMARK  137  A    between atoms: _376  and  _378
REMARK  138  A    between atoms: _378  and  _379
REMARK  139  A    between atoms: _378  and  _381
REMARK  140  A    between atoms: _381  and  _382
REMARK  141  A    between atoms: _392  and  _394
REMARK  142  A    between atoms: _394  and  _395
REMARK  143  A    between atoms: _394  and  _397
REMARK  144  A    between atoms: _397  and  _398
REMARK  145  A    between atoms: _403  and  _405
REMARK  146  A    between atoms: _405  and  _406
REMARK  147  A    between atoms: _405  and  _408
REMARK  148  A    between atoms: _408  and  _409
REMARK  149  A    between atoms: _409  and  _410
REMARK  150  A    between atoms: _410  and  _411
REMARK                            x       y       z     vdW  Elec       q    Type
REMARK                         _______ _______ _______ _____ _____    ______ ____
ROOT
ATOM      1  CA  PHE A   1      -7.794  13.817  15.085  0.00  0.00    +0.149 C 
ENDROOT
BRANCH   1   2
ATOM      2  C   PHE A   1      -6.355  14.113  15.493  0.00  0.00    +0.239 C 
ATOM      3  O   PHE A   1      -5.870  13.584  16.496  0.00  0.00    -0.274 OA
ATOM      4  N   GLY A   2      -5.680  14.957  14.718  0.00  0.00    -0.297 N 
ATOM      5  H   GLY A   2      -6.151  15.383  13.894  0.00  0.00    +0.150 HD
BRANCH   4   6
ATOM      6  CA  GLY A   2      -4.297  15.294  15.003  0.00  0.00    +0.163 C 
BRANCH   6   7
ATOM      7  C   GLY A   2      -4.050  15.831  16.401  0.00  0.00    +0.229 C 
ATOM      8  O   GLY A   2      -3.095  15.437  17.066  0.00  0.00    -0.286 OA
ENDBRANCH   6   7
ENDBRANCH   4   6
ENDBRANCH   1   2
BRANCH   1   9
ATOM      9  N   PHE A   1      -8.560  14.995  14.715  0.00  0.00    -0.238 NA
ATOM     10  H   PHE A   1      -8.981  15.049  13.766  0.00  0.00    +0.142 HD
ENDBRANCH   1   9
BRANCH   1  11
ATOM     11  CB  PHE A   1      -7.819  12.809  13.933  0.00  0.00    +0.053 C 
BRANCH  11  12
ATOM     12  CG  PHE A   1      -7.144  11.511  14.251  0.00  0.00    -0.020 A 
ATOM     13  CD2 PHE A   1      -7.873  10.453  14.781  0.00  0.00    -0.004 A 
ATOM     14  CE2 PHE A   1      -7.251   9.251  15.103  0.00  0.00    -0.000 A 
ATOM     15  CZ  PHE A   1      -5.889   9.100  14.895  0.00  0.00    -0.000 A 
ATOM     16  CE1 PHE A   1      -5.147  10.150  14.366  0.00  0.00    -0.000 A 
ATOM     17  CD1 PHE A   1      -5.777  11.350  14.047  0.00  0.00    -0.004 A 
ENDBRANCH  11  12
ENDBRANCH   1  11
TORSDOF 6
REMARK  Name = ../refined-set-2016/3ibu/3ibu_pocket.pdb
REMARK  150 active torsions:
REMARK  status: ('A' for Active; 'I' for Inactive)
REMARK    1  A    between atoms: _1  and  _3
REMARK    2  A    between atoms: _3  and  _4
REMARK    3  A    between atoms: _3  and  _6
REMARK    4  A    between atoms: _6  and  _7
REMARK    5  A    between atoms: _17  and  _19
REMARK    6  A    between atoms: _19  and  _20
REMARK    7  A    between atoms: _19  and  _22
REMARK    8  A    between atoms: _22  and  _23
REMARK    9  A    between atoms: _28  and  _29
REMARK   10  A    between atoms: _31  and  _33
REMARK   11  A    between atoms: _33  and  _34
REMARK   12  A    between atoms: _33  and  _36
REMARK   13  A    between atoms: _36  and  _37
REMARK   14  A    between atoms: _40  and  _41
REMARK   15  A    between atoms: _46  and  _48
REMARK   16  A    between atoms: _48  and  _49
REMARK   17  A    between atoms: _48  and  _51
REMARK   18  A    between atoms: _51  and  _52
REMARK   19  A    between atoms: _57  and  _59
REMARK   20  A    between atoms: _59  and  _60
REMARK   21  A    between atoms: _63  and  _65
REMARK   22  A    between atoms: _65  and  _66
REMARK   23  A    between atoms: _65  and  _68
REMARK   24  A    between atoms: _68  and  _69
REMARK   25  A    between atoms: _74  and  _76
REMARK   26  A    between atoms: _76  and  _77
REMARK   27  A    between atoms: _76  and  _79
REMARK   28  A    between atoms: _79  and  _80
REMARK   29  A    between atoms: _83  and  _85
REMARK   30  A    between atoms: _85  and  _86
REMARK   31  A    between atoms: _85  and  _88
REMARK   32  A    between atoms: _88  and  _89
REMARK   33  A    between atoms: _89  and  _90
REMARK   34  A    between atoms: _95  and  _97
REMARK   35  A    between atoms: _97  and  _98
REMARK   36  A    between atoms: _97  and  _100
REMARK   37  A    between atoms: _100  and  _101
REMARK   38  A    between atoms: _107  and  _109
REMARK   39  A    between atoms: _120  and  _123
REMARK   40  A    between atoms: _123  and  _124
REMARK   41  A    between atoms: _132  and  _133
REMARK   42  A    between atoms: _141  and  _143
REMARK   43  A    between atoms: _143  and  _144
REMARK   44  A    between atoms: _143  and  _146
REMARK   45  A    between atoms: _146  and  _147
REMARK   46  A    between atoms: _147  and  _148
REMARK   47  A    between atoms: _151  and  _153
REMARK   48  A    between atoms: _153  and  _154
REMARK   49  A    between atoms: _153  and  _156
REMARK   50  A    between atoms: _156  and  _157
REMARK   51  A    between atoms: _162  and  _164
REMARK   52  A    between atoms: _164  and  _165
REMARK   53  A    between atoms: _164  and  _167
REMARK   54  A    between atoms: _167  and  _168
REMARK   55  A    between atoms: _168  and  _169
REMARK   56  A    between atoms: _172  and  _174
REMARK   57  A    between atoms: _174  and  _175
REMARK   58  A    between atoms: _174  and  _177
REMARK   59  A    between atoms: _177  and  _178
REMARK   60  A    between atoms: _181  and  _183
REMARK   61  A    between atoms: _183  and  _184
REMARK   62  A    between atoms: _183  and  _186
REMARK   63  A    between atoms: _186  and  _187
REMARK   64  A    between atoms: _188  and  ZN_420
REMARK   65  A    between atoms: _192  and  _194
REMARK   66  A    between atoms: _194  and  _195
REMARK   67  A    between atoms: _194  and  _197
REMARK   68  A    between atoms: _197  and  _198
REMARK   69  A    between atoms: _201  and  _203
REMARK   70  A    between atoms: _203  and  _204
REMARK   71  A    between atoms: _203  and  _206
REMARK   72  A    between atoms: _209  and  _211
REMARK   73  A    between atoms: _211  and  _212
REMARK   74  A    between atoms: _211  and  _214
REMARK   75  A    between atoms: _214  and  _215
REMARK   76  A    between atoms: _220  and  _222
REMARK   77  A    between atoms: _222  and  _223
REMARK   78  A    between atoms: _222  and  _225
REMARK   79  A    between atoms: _225  and  _226
REMARK   80  A    between atoms: _232  and  _234
REMARK   81  A    between atoms: _234  and  _235
REMARK   82  A    between atoms: _237  and  _239
REMARK   83  A    between atoms: _239  and  _240
REMARK   84  A    between atoms: _239  and  _242
REMARK   85  A    between atoms: _245  and  _247
REMARK   86  A    between atoms: _247  and  _248
REMARK   87  A    between atoms: _247  and  _250
REMARK   88  A    between atoms: _250  and  _251
REMARK   89  A    between atoms: _251  and  _252
REMARK   90  A    between atoms: _257  and  _259
REMARK   91  A    between atoms: _259  and  _260
REMARK   92  A    between atoms: _259  and  _262
REMARK   93  A    between atoms: _262  and  _263
REMARK   94  A    between atoms: _266  and  _268
REMARK   95  A    between atoms: _268  and  _269
REMARK   96  A    between atoms: _272  and  _274
REMARK   97  A    between atoms: _274  and  _275
REMARK   98  A    between atoms: _274  and  _277
REMARK   99  A    between atoms: _280  and  _282
REMARK  100  A    between atoms: _282  and  _283
REMARK  101  A    between atoms: _282  and  _285
REMARK  102  A    between atoms: _285  and  _286
REMARK  103  A    between atoms: _289  and  _291
REMARK  104  A    between atoms: _291  and  _292
REMARK  105  A    between atoms: _294  and  _296
REMARK  106  A    between atoms: _296  and  _297
REMARK  107  A    between atoms: _296  and  _299
REMARK  108  A    between atoms: _299  and  _300
REMARK  109  A    between atoms: _302  and  _304
REMARK  110  A    between atoms: _304  and  _305
REMARK  111  A    between atoms: _304  and  _307
REMARK  112  A    between atoms: _307  and  _308
REMARK  113  A    between atoms: _311  and  _313
REMARK  114  A    between atoms: _313  and  _314
REMARK  115  A    between atoms: _313  and  _316
REMARK  116  A    between atoms: _316  and  _317
REMARK  117  A    between atoms: _320  and  _322
REMARK  118  A    between atoms: _322  and  _323
REMARK  119  A    between atoms: _322  and  _325
REMARK  120  A    between atoms: _325  and  _326
REMARK  121  A    between atoms: _330  and  _331
REMARK  122  A    between atoms: _337  and  _338
REMARK  123  A    between atoms: _343  and  _345
REMARK  124  A    between atoms: _345  and  _346
REMARK  125  A    between atoms: _345  and  _348
REMARK  126  A    between atoms: _348  and  _349
REMARK  127  A    between atoms: _352  and  _354
REMARK  128  A    between atoms: _354  and  _355
REMARK  129  A    between atoms: _354  and  _357
REMARK  130  A    between atoms: _357  and  _358
REMARK  131  A    between atoms: _361  and  _363
REMARK  132  A    between atoms: _363  and  _364
REMARK  133  A    between atoms: _363  and  _366
REMARK  134  A    between atoms: _368  and  _370
REMARK  135  A    between atoms: _370  and  _371
REMARK  136  A    between atoms: _370  and  _373
REMARK  137  A    between atoms: _376  and  _378
REMARK  138  A    between atoms: _378  and  _379
REMARK  139  A    between atoms: _378  and  _381
REMARK  140  A    between atoms: _381  and  _382
REMARK  141  A    between atoms: _392  and  _394
REMARK  142  A    between atoms: _394  and  _395
REMARK  143  A    between atoms: _394  and  _397
REMARK  144  A    between atoms: _397  and  _398
REMARK  145  A    between atoms: _403  and  _405
REMARK  146  A    between atoms: _405  and  _406
REMARK  147  A    between atoms: _405  and  _408
REMARK  148  A    between atoms: _408  and  _409
REMARK  149  A    between atoms: _409  and  _410
REMARK  150  A    between atoms: _410  and  _411
REMARK                            x       y       z     vdW  Elec       q    Type
REMARK                         _______ _______ _______ _____ _____    ______ ____
ROOT
ATOM      1  C   VAL A   1      -2.582  12.717  20.466  0.00  0.00    +0.238 C 
ATOM      2  N   GLN A   2      -2.810  13.881  21.061  0.00  0.00    -0.298 N 
ATOM      3  H   GLN A   2      -3.730  14.346  20.922  0.00  0.00    +0.150 HD
ATOM      4  O   VAL A   1      -1.504  12.129  20.539  0.00  0.00    -0.274 OA
ENDROOT
BRANCH   1   5
ATOM      5  CA  VAL A   1      -3.745  12.136  19.663  0.00  0.00    +0.145 C 
BRANCH   5   6
ATOM      6  CB  VAL A   1      -3.205  11.427  18.395  0.00  0.00    +0.025 C 
ATOM      7  CG2 VAL A   1      -4.339  10.691  17.706  0.00  0.00    +0.002 C 
ATOM      8  CG1 VAL A   1      -2.568  12.430  17.446  0.00  0.00    +0.002 C 
ENDBRANCH   5   6
BRANCH   5   9
ATOM      9  N   VAL A   1      -4.780  13.113  19.333  0.00  0.00    -0.238 NA
ATOM     10  H   VAL A   1      -4.832  13.506  18.372  0.00  0.00    +0.142 HD
ENDBRANCH   5   9
ENDBRANCH   1   5
BRANCH   2  11
ATOM     11  CA  GLN A   2      -1.811  14.528  21.904  0.00  0.00    +0.137 C 
BRANCH  11  12
ATOM     12  C   GLN A   2      -2.445  14.660  23.287  0.00  0.00    +0.227 C 
ATOM     13  O   GLN A   2      -1.926  15.357  24.164  0.00  0.00    -0.286 OA
ENDBRANCH  11  12
BRANCH  11  14
ATOM     14  CB  GLN A   2      -1.460  15.918  21.365  0.00  0.00    +0.037 C 
BRANCH  14  15
ATOM     15  CG  GLN A   2      -0.892  15.918  19.952  0.00  0.00    +0.087 C 
BRANCH  15  16
ATOM     16  CD  GLN A   2      -0.471  17.301  19.494  0.00  0.00    +0.219 C 
ATOM     17  OE1 GLN A   2       0.417  17.917  20.082  0.00  0.00    -0.275 OA
ATOM     18  NE2 GLN A   2      -1.110  17.797  18.439  0.00  0.00    -0.329 N 
ATOM     19 HE21 GLN A   2      -0.865  18.742  18.080  0.00  0.00    +0.145 HD
ATOM     20 HE22 GLN A   2      -1.855  17.240  17.973  0.00  0.00    +0.145 HD
ENDBRANCH  15  16
ENDBRANCH  14  15
ENDBRANCH  11  14
ENDBRANCH   2  11
TORSDOF 8
REMARK  Name = ../refined-set-2016/3ibu/3ibu_pocket.pdb
REMARK  150 active torsions:
REMARK  status: ('A' for Active; 'I' for Inactive)
REMARK    1  A    between atoms: _1  and  _3
REMARK    2  A    between atoms: _3  and  _4
REMARK    3  A    between atoms: _3  and  _6
REMARK    4  A    between atoms: _6  and  _7
REMARK    5  A    between atoms: _17  and  _19
REMARK    6  A    between atoms: _19  and  _20
REMARK    7  A    between atoms: _19  and  _22
REMARK    8  A    between atoms: _22  and  _23
REMARK    9  A    between atoms: _28  and  _29
REMARK   10  A    between atoms: _31  and  _33
REMARK   11  A    between atoms: _33  and  _34
REMARK   12  A    between atoms: _33  and  _36
REMARK   13  A    between atoms: _36  and  _37
REMARK   14  A    between atoms: _40  and  _41
REMARK   15  A    between atoms: _46  and  _48
REMARK   16  A    between atoms: _48  and  _49
REMARK   17  A    between atoms: _48  and  _51
REMARK   18  A    between atoms: _51  and  _52
REMARK   19  A    between atoms: _57  and  _59
REMARK   20  A    between atoms: _59  and  _60
REMARK   21  A    between atoms: _63  and  _65
REMARK   22  A    between atoms: _65  and  _66
REMARK   23  A    between atoms: _65  and  _68
REMARK   24  A    between atoms: _68  and  _69
REMARK   25  A    between atoms: _74  and  _76
REMARK   26  A    between atoms: _76  and  _77
REMARK   27  A    between atoms: _76  and  _79
REMARK   28  A    between atoms: _79  and  _80
REMARK   29  A    between atoms: _83  and  _85
REMARK   30  A    between atoms: _85  and  _86
REMARK   31  A    between atoms: _85  and  _88
REMARK   32  A    between atoms: _88  and  _89
REMARK   33  A    between atoms: _89  and  _90
REMARK   34  A    between atoms: _95  and  _97
REMARK   35  A    between atoms: _97  and  _98
REMARK   36  A    between atoms: _97  and  _100
REMARK   37  A    between atoms: _100  and  _101
REMARK   38  A    between atoms: _107  and  _109
REMARK   39  A    between atoms: _120  and  _123
REMARK   40  A    between atoms: _123  and  _124
REMARK   41  A    between atoms: _132  and  _133
REMARK   42  A    between atoms: _141  and  _143
REMARK   43  A    between atoms: _143  and  _144
REMARK   44  A    between atoms: _143  and  _146
REMARK   45  A    between atoms: _146  and  _147
REMARK   46  A    between atoms: _147  and  _148
REMARK   47  A    between atoms: _151  and  _153
REMARK   48  A    between atoms: _153  and  _154
REMARK   49  A    between atoms: _153  and  _156
REMARK   50  A    between atoms: _156  and  _157
REMARK   51  A    between atoms: _162  and  _164
REMARK   52  A    between atoms: _164  and  _165
REMARK   53  A    between atoms: _164  and  _167
REMARK   54  A    between atoms: _167  and  _168
REMARK   55  A    between atoms: _168  and  _169
REMARK   56  A    between atoms: _172  and  _174
REMARK   57  A    between atoms: _174  and  _175
REMARK   58  A    between atoms: _174  and  _177
REMARK   59  A    between atoms: _177  and  _178
REMARK   60  A    between atoms: _181  and  _183
REMARK   61  A    between atoms: _183  and  _184
REMARK   62  A    between atoms: _183  and  _186
REMARK   63  A    between atoms: _186  and  _187
REMARK   64  A    between atoms: _188  and  ZN_420
REMARK   65  A    between atoms: _192  and  _194
REMARK   66  A    between atoms: _194  and  _195
REMARK   67  A    between atoms: _194  and  _197
REMARK   68  A    between atoms: _197  and  _198
REMARK   69  A    between atoms: _201  and  _203
REMARK   70  A    between atoms: _203  and  _204
REMARK   71  A    between atoms: _203  and  _206
REMARK   72  A    between atoms: _209  and  _211
REMARK   73  A    between atoms: _211  and  _212
REMARK   74  A    between atoms: _211  and  _214
REMARK   75  A    between atoms: _214  and  _215
REMARK   76  A    between atoms: _220  and  _222
REMARK   77  A    between atoms: _222  and  _223
REMARK   78  A    between atoms: _222  and  _225
REMARK   79  A    between atoms: _225  and  _226
REMARK   80  A    between atoms: _232  and  _234
REMARK   81  A    between atoms: _234  and  _235
REMARK   82  A    between atoms: _237  and  _239
REMARK   83  A    between atoms: _239  and  _240
REMARK   84  A    between atoms: _239  and  _242
REMARK   85  A    between atoms: _245  and  _247
REMARK   86  A    between atoms: _247  and  _248
REMARK   87  A    between atoms: _247  and  _250
REMARK   88  A    between atoms: _250  and  _251
REMARK   89  A    between atoms: _251  and  _252
REMARK   90  A    between atoms: _257  and  _259
REMARK   91  A    between atoms: _259  and  _260
REMARK   92  A    between atoms: _259  and  _262
REMARK   93  A    between atoms: _262  and  _263
REMARK   94  A    between atoms: _266  and  _268
REMARK   95  A    between atoms: _268  and  _269
REMARK   96  A    between atoms: _272  and  _274
REMARK   97  A    between atoms: _274  and  _275
REMARK   98  A    between atoms: _274  and  _277
REMARK   99  A    between atoms: _280  and  _282
REMARK  100  A    between atoms: _282  and  _283
REMARK  101  A    between atoms: _282  and  _285
REMARK  102  A    between atoms: _285  and  _286
REMARK  103  A    between atoms: _289  and  _291
REMARK  104  A    between atoms: _291  and  _292
REMARK  105  A    between atoms: _294  and  _296
REMARK  106  A    between atoms: _296  and  _297
REMARK  107  A    between atoms: _296  and  _299
REMARK  108  A    between atoms: _299  and  _300
REMARK  109  A    between atoms: _302  and  _304
REMARK  110  A    between atoms: _304  and  _305
REMARK  111  A    between atoms: _304  and  _307
REMARK  112  A    between atoms: _307  and  _308
REMARK  113  A    between atoms: _311  and  _313
REMARK  114  A    between atoms: _313  and  _314
REMARK  115  A    between atoms: _313  and  _316
REMARK  116  A    between atoms: _316  and  _317
REMARK  117  A    between atoms: _320  and  _322
REMARK  118  A    between atoms: _322  and  _323
REMARK  119  A    between atoms: _322  and  _325
REMARK  120  A    between atoms: _325  and  _326
REMARK  121  A    between atoms: _330  and  _331
REMARK  122  A    between atoms: _337  and  _338
REMARK  123  A    between atoms: _343  and  _345
REMARK  124  A    between atoms: _345  and  _346
REMARK  125  A    between atoms: _345  and  _348
REMARK  126  A    between atoms: _348  and  _349
REMARK  127  A    between atoms: _352  and  _354
REMARK  128  A    between atoms: _354  and  _355
REMARK  129  A    between atoms: _354  and  _357
REMARK  130  A    between atoms: _357  and  _358
REMARK  131  A    between atoms: _361  and  _363
REMARK  132  A    between atoms: _363  and  _364
REMARK  133  A    between atoms: _363  and  _366
REMARK  134  A    between atoms: _368  and  _370
REMARK  135  A    between atoms: _370  and  _371
REMARK  136  A    between atoms: _370  and  _373
REMARK  137  A    between atoms: _376  and  _378
REMARK  138  A    between atoms: _378  and  _379
REMARK  139  A    between atoms: _378  and  _381
REMARK  140  A    between atoms: _381  and  _382
REMARK  141  A    between atoms: _392  and  _394
REMARK  142  A    between atoms: _394  and  _395
REMARK  143  A    between atoms: _394  and  _397
REMARK  144  A    between atoms: _397  and  _398
REMARK  145  A    between atoms: _403  and  _405
REMARK  146  A    between atoms: _405  and  _406
REMARK  147  A    between atoms: _405  and  _408
REMARK  148  A    between atoms: _408  and  _409
REMARK  149  A    between atoms: _409  and  _410
REMARK  150  A    between atoms: _410  and  _411
REMARK                            x       y       z     vdW  Elec       q    Type
REMARK                         _______ _______ _______ _____ _____    ______ ____
ROOT
ATOM      1  C   ALA A   2     -12.178   5.016  20.731  0.00  0.00    +0.241 C 
ATOM      2  N   VAL A   3     -11.758   3.787  20.999  0.00  0.00    -0.297 N 
ATOM      3  H   VAL A   3     -11.362   3.564  21.934  0.00  0.00    +0.150 HD
ATOM      4  O   ALA A   2     -12.581   5.353  19.614  0.00  0.00    -0.273 OA
ENDROOT
BRANCH   1   5
ATOM      5  CA  ALA A   2     -12.072   6.029  21.858  0.00  0.00    +0.149 C 
ATOM      6  CB  ALA A   2     -13.456   6.549  22.243  0.00  0.00    +0.031 C 
BRANCH   5   9
ATOM      7  C   LEU A   1     -10.318   7.699  22.056  0.00  0.00    +0.238 C 
ATOM      8  O   LEU A   1     -10.146   7.472  23.255  0.00  0.00    -0.274 OA
ATOM      9  N   ALA A   2     -11.239   7.090  21.321  0.00  0.00    -0.297 N 
ATOM     10  H   ALA A   2     -11.368   7.381  20.331  0.00  0.00    +0.150 HD
BRANCH   7  11
ATOM     11  CA  LEU A   1      -9.478   8.721  21.310  0.00  0.00    +0.145 C 
BRANCH  11  12
ATOM     12  N   LEU A   1      -8.831   9.713  22.156  0.00  0.00    -0.238 NA
ATOM     13  H   LEU A   1      -8.255   9.405  22.965  0.00  0.00    +0.142 HD
ENDBRANCH  11  12
BRANCH  11  14
ATOM     14  CB  LEU A   1      -8.422   7.971  20.488  0.00  0.00    +0.026 C 
BRANCH  14  15
ATOM     15  CG  LEU A   1      -7.456   8.779  19.617  0.00  0.00    +0.002 C 
ATOM     16  CD2 LEU A   1      -6.472   7.828  18.945  0.00  0.00    +0.000 C 
ATOM     17  CD1 LEU A   1      -8.226   9.573  18.573  0.00  0.00    +0.000 C 
ENDBRANCH  14  15
ENDBRANCH  11  14
ENDBRANCH   7  11
ENDBRANCH   5   9
ENDBRANCH   1   5
BRANCH   2  18
ATOM     18  CA  VAL A   3     -11.853   2.756  19.985  0.00  0.00    +0.149 C 
BRANCH  18  19
ATOM     19  C   VAL A   3     -12.826   1.689  20.453  0.00  0.00    +0.241 C 
ATOM     20  O   VAL A   3     -12.707   1.159  21.565  0.00  0.00    -0.273 OA
ATOM     21  N   LEU A   4     -13.817   1.424  19.610  0.00  0.00    -0.298 N 
ATOM     22  H   LEU A   4     -13.878   1.964  18.723  0.00  0.00    +0.150 HD
BRANCH  21  23
ATOM     23  CA  LEU A   4     -14.819   0.407  19.882  0.00  0.00    +0.137 C 
BRANCH  23  24
ATOM     24  C   LEU A   4     -14.305  -0.862  19.220  0.00  0.00    +0.227 C 
ATOM     25  O   LEU A   4     -14.173  -0.925  17.997  0.00  0.00    -0.286 OA
ENDBRANCH  23  24
BRANCH  23  26
ATOM     26  CB  LEU A   4     -16.173   0.809  19.285  0.00  0.00    +0.028 C 
BRANCH  26  27
ATOM     27  CG  LEU A   4     -17.340  -0.165  19.475  0.00  0.00    +0.002 C 
ATOM     28  CD2 LEU A   4     -17.571  -0.420  20.958  0.00  0.00    +0.000 C 
ATOM     29  CD1 LEU A   4     -18.596   0.416  18.829  0.00  0.00    +0.000 C 
ENDBRANCH  26  27
ENDBRANCH  23  26
ENDBRANCH  21  23
ENDBRANCH  18  19
BRANCH  18  30
ATOM     30  CB  VAL A   3     -10.483   2.102  19.672  0.00  0.00    +0.027 C 
ATOM     31  CG2 VAL A   3      -9.478   3.161  19.227  0.00  0.00    +0.002 C 
ATOM     32  CG1 VAL A   3     -10.657   1.069  18.559  0.00  0.00    +0.002 C 
ENDBRANCH  18  30
ENDBRANCH   2  18
TORSDOF 13
REMARK  Name = ../refined-set-2016/3ibu/3ibu_pocket.pdb
REMARK  150 active torsions:
REMARK  status: ('A' for Active; 'I' for Inactive)
REMARK    1  A    between atoms: _1  and  _3
REMARK    2  A    between atoms: _3  and  _4
REMARK    3  A    between atoms: _3  and  _6
REMARK    4  A    between atoms: _6  and  _7
REMARK    5  A    between atoms: _17  and  _19
REMARK    6  A    between atoms: _19  and  _20
REMARK    7  A    between atoms: _19  and  _22
REMARK    8  A    between atoms: _22  and  _23
REMARK    9  A    between atoms: _28  and  _29
REMARK   10  A    between atoms: _31  and  _33
REMARK   11  A    between atoms: _33  and  _34
REMARK   12  A    between atoms: _33  and  _36
REMARK   13  A    between atoms: _36  and  _37
REMARK   14  A    between atoms: _40  and  _41
REMARK   15  A    between atoms: _46  and  _48
REMARK   16  A    between atoms: _48  and  _49
REMARK   17  A    between atoms: _48  and  _51
REMARK   18  A    between atoms: _51  and  _52
REMARK   19  A    between atoms: _57  and  _59
REMARK   20  A    between atoms: _59  and  _60
REMARK   21  A    between atoms: _63  and  _65
REMARK   22  A    between atoms: _65  and  _66
REMARK   23  A    between atoms: _65  and  _68
REMARK   24  A    between atoms: _68  and  _69
REMARK   25  A    between atoms: _74  and  _76
REMARK   26  A    between atoms: _76  and  _77
REMARK   27  A    between atoms: _76  and  _79
REMARK   28  A    between atoms: _79  and  _80
REMARK   29  A    between atoms: _83  and  _85
REMARK   30  A    between atoms: _85  and  _86
REMARK   31  A    between atoms: _85  and  _88
REMARK   32  A    between atoms: _88  and  _89
REMARK   33  A    between atoms: _89  and  _90
REMARK   34  A    between atoms: _95  and  _97
REMARK   35  A    between atoms: _97  and  _98
REMARK   36  A    between atoms: _97  and  _100
REMARK   37  A    between atoms: _100  and  _101
REMARK   38  A    between atoms: _107  and  _109
REMARK   39  A    between atoms: _120  and  _123
REMARK   40  A    between atoms: _123  and  _124
REMARK   41  A    between atoms: _132  and  _133
REMARK   42  A    between atoms: _141  and  _143
REMARK   43  A    between atoms: _143  and  _144
REMARK   44  A    between atoms: _143  and  _146
REMARK   45  A    between atoms: _146  and  _147
REMARK   46  A    between atoms: _147  and  _148
REMARK   47  A    between atoms: _151  and  _153
REMARK   48  A    between atoms: _153  and  _154
REMARK   49  A    between atoms: _153  and  _156
REMARK   50  A    between atoms: _156  and  _157
REMARK   51  A    between atoms: _162  and  _164
REMARK   52  A    between atoms: _164  and  _165
REMARK   53  A    between atoms: _164  and  _167
REMARK   54  A    between atoms: _167  and  _168
REMARK   55  A    between atoms: _168  and  _169
REMARK   56  A    between atoms: _172  and  _174
REMARK   57  A    between atoms: _174  and  _175
REMARK   58  A    between atoms: _174  and  _177
REMARK   59  A    between atoms: _177  and  _178
REMARK   60  A    between atoms: _181  and  _183
REMARK   61  A    between atoms: _183  and  _184
REMARK   62  A    between atoms: _183  and  _186
REMARK   63  A    between atoms: _186  and  _187
REMARK   64  A    between atoms: _188  and  ZN_420
REMARK   65  A    between atoms: _192  and  _194
REMARK   66  A    between atoms: _194  and  _195
REMARK   67  A    between atoms: _194  and  _197
REMARK   68  A    between atoms: _197  and  _198
REMARK   69  A    between atoms: _201  and  _203
REMARK   70  A    between atoms: _203  and  _204
REMARK   71  A    between atoms: _203  and  _206
REMARK   72  A    between atoms: _209  and  _211
REMARK   73  A    between atoms: _211  and  _212
REMARK   74  A    between atoms: _211  and  _214
REMARK   75  A    between atoms: _214  and  _215
REMARK   76  A    between atoms: _220  and  _222
REMARK   77  A    between atoms: _222  and  _223
REMARK   78  A    between atoms: _222  and  _225
REMARK   79  A    between atoms: _225  and  _226
REMARK   80  A    between atoms: _232  and  _234
REMARK   81  A    between atoms: _234  and  _235
REMARK   82  A    between atoms: _237  and  _239
REMARK   83  A    between atoms: _239  and  _240
REMARK   84  A    between atoms: _239  and  _242
REMARK   85  A    between atoms: _245  and  _247
REMARK   86  A    between atoms: _247  and  _248
REMARK   87  A    between atoms: _247  and  _250
REMARK   88  A    between atoms: _250  and  _251
REMARK   89  A    between atoms: _251  and  _252
REMARK   90  A    between atoms: _257  and  _259
REMARK   91  A    between atoms: _259  and  _260
REMARK   92  A    between atoms: _259  and  _262
REMARK   93  A    between atoms: _262  and  _263
REMARK   94  A    between atoms: _266  and  _268
REMARK   95  A    between atoms: _268  and  _269
REMARK   96  A    between atoms: _272  and  _274
REMARK   97  A    between atoms: _274  and  _275
REMARK   98  A    between atoms: _274  and  _277
REMARK   99  A    between atoms: _280  and  _282
REMARK  100  A    between atoms: _282  and  _283
REMARK  101  A    between atoms: _282  and  _285
REMARK  102  A    between atoms: _285  and  _286
REMARK  103  A    between atoms: _289  and  _291
REMARK  104  A    between atoms: _291  and  _292
REMARK  105  A    between atoms: _294  and  _296
REMARK  106  A    between atoms: _296  and  _297
REMARK  107  A    between atoms: _296  and  _299
REMARK  108  A    between atoms: _299  and  _300
REMARK  109  A    between atoms: _302  and  _304
REMARK  110  A    between atoms: _304  and  _305
REMARK  111  A    between atoms: _304  and  _307
REMARK  112  A    between atoms: _307  and  _308
REMARK  113  A    between atoms: _311  and  _313
REMARK  114  A    between atoms: _313  and  _314
REMARK  115  A    between atoms: _313  and  _316
REMARK  116  A    between atoms: _316  and  _317
REMARK  117  A    between atoms: _320  and  _322
REMARK  118  A    between atoms: _322  and  _323
REMARK  119  A    between atoms: _322  and  _325
REMARK  120  A    between atoms: _325  and  _326
REMARK  121  A    between atoms: _330  and  _331
REMARK  122  A    between atoms: _337  and  _338
REMARK  123  A    between atoms: _343  and  _345
REMARK  124  A    between atoms: _345  and  _346
REMARK  125  A    between atoms: _345  and  _348
REMARK  126  A    between atoms: _348  and  _349
REMARK  127  A    between atoms: _352  and  _354
REMARK  128  A    between atoms: _354  and  _355
REMARK  129  A    between atoms: _354  and  _357
REMARK  130  A    between atoms: _357  and  _358
REMARK  131  A    between atoms: _361  and  _363
REMARK  132  A    between atoms: _363  and  _364
REMARK  133  A    between atoms: _363  and  _366
REMARK  134  A    between atoms: _368  and  _370
REMARK  135  A    between atoms: _370  and  _371
REMARK  136  A    between atoms: _370  and  _373
REMARK  137  A    between atoms: _376  and  _378
REMARK  138  A    between atoms: _378  and  _379
REMARK  139  A    between atoms: _378  and  _381
REMARK  140  A    between atoms: _381  and  _382
REMARK  141  A    between atoms: _392  and  _394
REMARK  142  A    between atoms: _394  and  _395
REMARK  143  A    between atoms: _394  and  _397
REMARK  144  A    between atoms: _397  and  _398
REMARK  145  A    between atoms: _403  and  _405
REMARK  146  A    between atoms: _405  and  _406
REMARK  147  A    between atoms: _405  and  _408
REMARK  148  A    between atoms: _408  and  _409
REMARK  149  A    between atoms: _409  and  _410
REMARK  150  A    between atoms: _410  and  _411
REMARK                            x       y       z     vdW  Elec       q    Type
REMARK                         _______ _______ _______ _____ _____    ______ ____
ROOT
ATOM      1  CA  THR A   5       0.127  -0.004  16.012  0.00  0.00    +0.176 C 
ENDROOT
BRANCH   1   2
ATOM      2  C   THR A   5       0.962   1.242  16.237  0.00  0.00    +0.246 C 
ATOM      3  O   THR A   5       0.507   2.193  16.872  0.00  0.00    -0.273 OA
ATOM      4  N   PRO A   6       2.209   1.246  15.747  0.00  0.00    -0.272 N 
ATOM      5  CA  PRO A   6       3.030   2.442  15.929  0.00  0.00    +0.152 C 
ATOM      6  CB  PRO A   6       4.251   2.142  15.071  0.00  0.00    +0.031 C 
ATOM      7  CG  PRO A   6       4.428   0.671  15.267  0.00  0.00    +0.024 C 
ATOM      8  CD  PRO A   6       3.001   0.134  15.190  0.00  0.00    +0.094 C 
BRANCH   5   9
ATOM      9  C   PRO A   6       2.198   3.600  15.379  0.00  0.00    +0.244 C 
ATOM     10  N   PRO A   7       2.321   4.801  15.963  0.00  0.00    -0.272 N 
ATOM     11  CA  PRO A   7       3.176   5.187  17.090  0.00  0.00    +0.152 C 
ATOM     12  CB  PRO A   7       3.235   6.703  16.956  0.00  0.00    +0.031 C 
ATOM     13  CG  PRO A   7       1.860   7.031  16.485  0.00  0.00    +0.024 C 
ATOM     14  CD  PRO A   7       1.600   5.974  15.430  0.00  0.00    +0.094 C 
ATOM     15  O   PRO A   6       1.472   3.427  14.396  0.00  0.00    -0.273 OA
BRANCH  11  16
ATOM     16  C   PRO A   7       2.810   4.741  18.511  0.00  0.00    +0.241 C 
ATOM     17  O   PRO A   7       3.423   5.206  19.471  0.00  0.00    -0.273 OA
ATOM     18  N   LEU A   8       1.814   3.865  18.650  0.00  0.00    -0.297 N 
ATOM     19  H   LEU A   8       1.296   3.552  17.805  0.00  0.00    +0.150 HD
BRANCH  18  20
ATOM     20  CA  LEU A   8       1.428   3.330  19.962  0.00  0.00    +0.149 C 
BRANCH  20  21
ATOM     21  C   LEU A   8       1.092   4.381  21.023  0.00  0.00    +0.241 C 
ATOM     22  O   LEU A   8       1.318   4.164  22.216  0.00  0.00    -0.273 OA
ATOM     23  N   LEU A   9       0.525   5.501  20.589  0.00  0.00    -0.298 N 
ATOM     24  H   LEU A   9       0.318   5.602  19.575  0.00  0.00    +0.150 HD
BRANCH  23  25
ATOM     25  CA  LEU A   9       0.185   6.593  21.493  0.00  0.00    +0.137 C 
BRANCH  25  26
ATOM     26  C   LEU A   9      -0.840   6.208  22.556  0.00  0.00    +0.227 C 
ATOM     27  O   LEU A   9      -1.837   5.549  22.272  0.00  0.00    -0.286 OA
ENDBRANCH  25  26
BRANCH  25  28
ATOM     28  CB  LEU A   9      -0.307   7.792  20.679  0.00  0.00    +0.028 C 
BRANCH  28  29
ATOM     29  CG  LEU A   9       0.698   8.293  19.635  0.00  0.00    +0.002 C 
ATOM     30  CD2 LEU A   9       1.934   8.853  20.324  0.00  0.00    +0.000 C 
ATOM     31  CD1 LEU A   9       0.040   9.339  18.763  0.00  0.00    +0.000 C 
ENDBRANCH  28  29
ENDBRANCH  25  28
ENDBRANCH  23  25
ENDBRANCH  20  21
BRANCH  20  32
ATOM     32  CB  LEU A   8       2.556   2.430  20.485  0.00  0.00    +0.029 C 
BRANCH  32  33
ATOM     33  CG  LEU A   8       2.988   1.318  19.525  0.00  0.00    +0.002 C 
ATOM     34  CD2 LEU A   8       4.314   0.720  19.973  0.00  0.00    +0.000 C 
ATOM     35  CD1 LEU A   8       1.903   0.252  19.468  0.00  0.00    +0.000 C 
ENDBRANCH  32  33
ENDBRANCH  20  32
ENDBRANCH  18  20
ENDBRANCH  11  16
ENDBRANCH   5   9
ENDBRANCH   1   2
BRANCH   1  38
ATOM     36  C   THR A   4      -1.011  -1.122  17.852  0.00  0.00    +0.243 C 
ATOM     37  O   THR A   4      -0.367  -2.155  17.684  0.00  0.00    -0.273 OA
ATOM     38  N   THR A   5      -0.868  -0.048  17.082  0.00  0.00    -0.295 N 
ATOM     39  H   THR A   5      -1.477   0.779  17.244  0.00  0.00    +0.150 HD
BRANCH  36  40
ATOM     40  CA  THR A   4      -2.044  -1.023  18.972  0.00  0.00    +0.176 C 
BRANCH  40  43
ATOM     41  C   LEU A   3      -2.290   1.246  19.768  0.00  0.00    +0.241 C 
ATOM     42  O   LEU A   3      -1.286   1.123  20.484  0.00  0.00    -0.273 OA
ATOM     43  N   THR A   4      -2.731   0.264  18.990  0.00  0.00    -0.295 N 
ATOM     44  H   THR A   4      -3.569   0.413  18.392  0.00  0.00    +0.150 HD
BRANCH  41  45
ATOM     45  CA  LEU A   3      -3.065   2.567  19.748  0.00  0.00    +0.149 C 
BRANCH  45  48
ATOM     46  C   SER A   2      -3.500   2.433  22.122  0.00  0.00    +0.243 C 
ATOM     47  O   SER A   2      -4.333   1.540  21.975  0.00  0.00    -0.273 OA
ATOM     48  N   LEU A   3      -2.875   3.025  21.112  0.00  0.00    -0.297 N 
ATOM     49  H   LEU A   3      -2.241   3.827  21.300  0.00  0.00    +0.150 HD
BRANCH  46  50
ATOM     50  CA  SER A   2      -3.102   2.931  23.493  0.00  0.00    +0.178 C 
BRANCH  50  53
ATOM     51  C   GLY A   1      -4.279   2.922  25.627  0.00  0.00    +0.240 C 
ATOM     52  O   GLY A   1      -4.216   4.148  25.741  0.00  0.00    -0.274 OA
ATOM     53  N   SER A   2      -3.822   2.262  24.567  0.00  0.00    -0.295 N 
ATOM     54  H   SER A   2      -3.984   1.237  24.503  0.00  0.00    +0.150 HD
BRANCH  51  55
ATOM     55  CA  GLY A   1      -4.938   2.066  26.687  0.00  0.00    +0.169 C 
BRANCH  55  56
ATOM     56  N   GLY A   1      -6.020   2.692  27.419  0.00  0.00    -0.236 NA
ATOM     57  H   GLY A   1      -6.652   3.362  26.936  0.00  0.00    +0.142 HD
ENDBRANCH  55  56
ENDBRANCH  51  55
ENDBRANCH  50  53
BRANCH  50  58
ATOM     58  CB  SER A   2      -1.609   2.640  23.633  0.00  0.00    +0.166 C 
BRANCH  58  59
ATOM     59  OG  SER A   2      -1.342   1.284  23.274  0.00  0.00    -0.380 OA
ATOM     60  H   SER A   2      -1.618   1.132  22.336  0.00  0.00    +0.211 HD
ENDBRANCH  58  59
ENDBRANCH  50  58
ENDBRANCH  46  50
ENDBRANCH  45  48
BRANCH  45  61
ATOM     61  CB  LEU A   3      -2.398   3.520  18.757  0.00  0.00    +0.029 C 
BRANCH  61  62
ATOM     62  CG  LEU A   3      -2.922   4.949  18.629  0.00  0.00    +0.002 C 
ATOM     63  CD2 LEU A   3      -4.374   4.933  18.183  0.00  0.00    +0.000 C 
ATOM     64  CD1 LEU A   3      -2.054   5.707  17.625  0.00  0.00    +0.000 C 
ENDBRANCH  61  62
ENDBRANCH  45  61
ENDBRANCH  41  45
ENDBRANCH  40  43
BRANCH  40  65
ATOM     65  CB  THR A   4      -3.035  -2.185  18.841  0.00  0.00    +0.137 C 
ATOM     66  CG2 THR A   4      -4.090  -2.109  19.934  0.00  0.00    +0.034 C 
BRANCH  65  67
ATOM     67  OG1 THR A   4      -3.665  -2.131  17.558  0.00  0.00    -0.382 OA
ATOM     68  HG1 THR A   4      -4.305  -2.882  17.474  0.00  0.00    +0.210 HD
ENDBRANCH  65  67
ENDBRANCH  40  65
ENDBRANCH  36  40
ENDBRANCH   1  38
BRANCH   1  69
ATOM     69  CB  THR A   5      -0.491   0.154  14.599  0.00  0.00    +0.137 C 
ATOM     70  CG2 THR A   5      -1.488  -0.945  14.306  0.00  0.00    +0.034 C 
BRANCH  69  71
ATOM     71  OG1 THR A   5      -1.134   1.431  14.499  0.00  0.00    -0.382 OA
ATOM     72  HG1 THR A   5      -0.468   2.147  14.650  0.00  0.00    +0.210 HD
ENDBRANCH  69  71
ENDBRANCH   1  69
TORSDOF 28
REMARK  Name = ../refined-set-2016/3ibu/3ibu_pocket.pdb
REMARK  150 active torsions:
REMARK  status: ('A' for Active; 'I' for Inactive)
REMARK    1  A    between atoms: _1  and  _3
REMARK    2  A    between atoms: _3  and  _4
REMARK    3  A    between atoms: _3  and  _6
REMARK    4  A    between atoms: _6  and  _7
REMARK    5  A    between atoms: _17  and  _19
REMARK    6  A    between atoms: _19  and  _20
REMARK    7  A    between atoms: _19  and  _22
REMARK    8  A    between atoms: _22  and  _23
REMARK    9  A    between atoms: _28  and  _29
REMARK   10  A    between atoms: _31  and  _33
REMARK   11  A    between atoms: _33  and  _34
REMARK   12  A    between atoms: _33  and  _36
REMARK   13  A    between atoms: _36  and  _37
REMARK   14  A    between atoms: _40  and  _41
REMARK   15  A    between atoms: _46  and  _48
REMARK   16  A    between atoms: _48  and  _49
REMARK   17  A    between atoms: _48  and  _51
REMARK   18  A    between atoms: _51  and  _52
REMARK   19  A    between atoms: _57  and  _59
REMARK   20  A    between atoms: _59  and  _60
REMARK   21  A    between atoms: _63  and  _65
REMARK   22  A    between atoms: _65  and  _66
REMARK   23  A    between atoms: _65  and  _68
REMARK   24  A    between atoms: _68  and  _69
REMARK   25  A    between atoms: _74  and  _76
REMARK   26  A    between atoms: _76  and  _77
REMARK   27  A    between atoms: _76  and  _79
REMARK   28  A    between atoms: _79  and  _80
REMARK   29  A    between atoms: _83  and  _85
REMARK   30  A    between atoms: _85  and  _86
REMARK   31  A    between atoms: _85  and  _88
REMARK   32  A    between atoms: _88  and  _89
REMARK   33  A    between atoms: _89  and  _90
REMARK   34  A    between atoms: _95  and  _97
REMARK   35  A    between atoms: _97  and  _98
REMARK   36  A    between atoms: _97  and  _100
REMARK   37  A    between atoms: _100  and  _101
REMARK   38  A    between atoms: _107  and  _109
REMARK   39  A    between atoms: _120  and  _123
REMARK   40  A    between atoms: _123  and  _124
REMARK   41  A    between atoms: _132  and  _133
REMARK   42  A    between atoms: _141  and  _143
REMARK   43  A    between atoms: _143  and  _144
REMARK   44  A    between atoms: _143  and  _146
REMARK   45  A    between atoms: _146  and  _147
REMARK   46  A    between atoms: _147  and  _148
REMARK   47  A    between atoms: _151  and  _153
REMARK   48  A    between atoms: _153  and  _154
REMARK   49  A    between atoms: _153  and  _156
REMARK   50  A    between atoms: _156  and  _157
REMARK   51  A    between atoms: _162  and  _164
REMARK   52  A    between atoms: _164  and  _165
REMARK   53  A    between atoms: _164  and  _167
REMARK   54  A    between atoms: _167  and  _168
REMARK   55  A    between atoms: _168  and  _169
REMARK   56  A    between atoms: _172  and  _174
REMARK   57  A    between atoms: _174  and  _175
REMARK   58  A    between atoms: _174  and  _177
REMARK   59  A    between atoms: _177  and  _178
REMARK   60  A    between atoms: _181  and  _183
REMARK   61  A    between atoms: _183  and  _184
REMARK   62  A    between atoms: _183  and  _186
REMARK   63  A    between atoms: _186  and  _187
REMARK   64  A    between atoms: _188  and  ZN_420
REMARK   65  A    between atoms: _192  and  _194
REMARK   66  A    between atoms: _194  and  _195
REMARK   67  A    between atoms: _194  and  _197
REMARK   68  A    between atoms: _197  and  _198
REMARK   69  A    between atoms: _201  and  _203
REMARK   70  A    between atoms: _203  and  _204
REMARK   71  A    between atoms: _203  and  _206
REMARK   72  A    between atoms: _209  and  _211
REMARK   73  A    between atoms: _211  and  _212
REMARK   74  A    between atoms: _211  and  _214
REMARK   75  A    between atoms: _214  and  _215
REMARK   76  A    between atoms: _220  and  _222
REMARK   77  A    between atoms: _222  and  _223
REMARK   78  A    between atoms: _222  and  _225
REMARK   79  A    between atoms: _225  and  _226
REMARK   80  A    between atoms: _232  and  _234
REMARK   81  A    between atoms: _234  and  _235
REMARK   82  A    between atoms: _237  and  _239
REMARK   83  A    between atoms: _239  and  _240
REMARK   84  A    between atoms: _239  and  _242
REMARK   85  A    between atoms: _245  and  _247
REMARK   86  A    between atoms: _247  and  _248
REMARK   87  A    between atoms: _247  and  _250
REMARK   88  A    between atoms: _250  and  _251
REMARK   89  A    between atoms: _251  and  _252
REMARK   90  A    between atoms: _257  and  _259
REMARK   91  A    between atoms: _259  and  _260
REMARK   92  A    between atoms: _259  and  _262
REMARK   93  A    between atoms: _262  and  _263
REMARK   94  A    between atoms: _266  and  _268
REMARK   95  A    between atoms: _268  and  _269
REMARK   96  A    between atoms: _272  and  _274
REMARK   97  A    between atoms: _274  and  _275
REMARK   98  A    between atoms: _274  and  _277
REMARK   99  A    between atoms: _280  and  _282
REMARK  100  A    between atoms: _282  and  _283
REMARK  101  A    between atoms: _282  and  _285
REMARK  102  A    between atoms: _285  and  _286
REMARK  103  A    between atoms: _289  and  _291
REMARK  104  A    between atoms: _291  and  _292
REMARK  105  A    between atoms: _294  and  _296
REMARK  106  A    between atoms: _296  and  _297
REMARK  107  A    between atoms: _296  and  _299
REMARK  108  A    between atoms: _299  and  _300
REMARK  109  A    between atoms: _302  and  _304
REMARK  110  A    between atoms: _304  and  _305
REMARK  111  A    between atoms: _304  and  _307
REMARK  112  A    between atoms: _307  and  _308
REMARK  113  A    between atoms: _311  and  _313
REMARK  114  A    between atoms: _313  and  _314
REMARK  115  A    between atoms: _313  and  _316
REMARK  116  A    between atoms: _316  and  _317
REMARK  117  A    between atoms: _320  and  _322
REMARK  118  A    between atoms: _322  and  _323
REMARK  119  A    between atoms: _322  and  _325
REMARK  120  A    between atoms: _325  and  _326
REMARK  121  A    between atoms: _330  and  _331
REMARK  122  A    between atoms: _337  and  _338
REMARK  123  A    between atoms: _343  and  _345
REMARK  124  A    between atoms: _345  and  _346
REMARK  125  A    between atoms: _345  and  _348
REMARK  126  A    between atoms: _348  and  _349
REMARK  127  A    between atoms: _352  and  _354
REMARK  128  A    between atoms: _354  and  _355
REMARK  129  A    between atoms: _354  and  _357
REMARK  130  A    between atoms: _357  and  _358
REMARK  131  A    between atoms: _361  and  _363
REMARK  132  A    between atoms: _363  and  _364
REMARK  133  A    between atoms: _363  and  _366
REMARK  134  A    between atoms: _368  and  _370
REMARK  135  A    between atoms: _370  and  _371
REMARK  136  A    between atoms: _370  and  _373
REMARK  137  A    between atoms: _376  and  _378
REMARK  138  A    between atoms: _378  and  _379
REMARK  139  A    between atoms: _378  and  _381
REMARK  140  A    between atoms: _381  and  _382
REMARK  141  A    between atoms: _392  and  _394
REMARK  142  A    between atoms: _394  and  _395
REMARK  143  A    between atoms: _394  and  _397
REMARK  144  A    between atoms: _397  and  _398
REMARK  145  A    between atoms: _403  and  _405
REMARK  146  A    between atoms: _405  and  _406
REMARK  147  A    between atoms: _405  and  _408
REMARK  148  A    between atoms: _408  and  _409
REMARK  149  A    between atoms: _409  and  _410
REMARK  150  A    between atoms: _410  and  _411
REMARK                            x       y       z     vdW  Elec       q    Type
REMARK                         _______ _______ _______ _____ _____    ______ ____
ROOT
ATOM      1  C   CYS A   1      -5.982   7.656  24.021  0.00  0.00    +0.239 C 
ATOM      2  N   VAL A   2      -6.020   6.334  24.138  0.00  0.00    -0.298 N 
ATOM      3  H   VAL A   2      -5.153   5.816  24.385  0.00  0.00    +0.150 HD
ATOM      4  O   CYS A   1      -6.993   8.345  23.870  0.00  0.00    -0.274 OA
ENDROOT
BRANCH   1   5
ATOM      5  CA  CYS A   1      -4.615   8.322  24.125  0.00  0.00    +0.156 C 
BRANCH   5   6
ATOM      6  N   CYS A   1      -3.519   7.354  24.122  0.00  0.00    -0.237 NA
ATOM      7  H   CYS A   1      -3.474   6.646  23.361  0.00  0.00    +0.142 HD
ENDBRANCH   5   6
BRANCH   5   8
ATOM      8  CB  CYS A   1      -4.487   9.259  22.913  0.00  0.00    +0.095 C 
ATOM      9  SG  CYS A   1      -2.796   9.764  22.420  0.00  0.00    -0.080 S 
ENDBRANCH   5   8
ENDBRANCH   1   5
BRANCH   2  10
ATOM     10  CA  VAL A   2      -7.257   5.602  23.925  0.00  0.00    +0.137 C 
BRANCH  10  11
ATOM     11  CB  VAL A   2      -6.992   4.387  22.993  0.00  0.00    +0.026 C 
ATOM     12  CG2 VAL A   2      -8.295   3.696  22.638  0.00  0.00    +0.002 C 
ATOM     13  CG1 VAL A   2      -6.272   4.837  21.732  0.00  0.00    +0.002 C 
ENDBRANCH  10  11
BRANCH  10  14
ATOM     14  C   VAL A   2      -8.058   5.065  25.094  0.00  0.00    +0.227 C 
ATOM     15  O   VAL A   2      -7.512   4.458  26.012  0.00  0.00    -0.286 OA
ENDBRANCH  10  14
ENDBRANCH   2  10
TORSDOF 6
REMARK  Name = ../refined-set-2016/3ibu/3ibu_pocket.pdb
REMARK  150 active torsions:
REMARK  status: ('A' for Active; 'I' for Inactive)
REMARK    1  A    between atoms: _1  and  _3
REMARK    2  A    between atoms: _3  and  _4
REMARK    3  A    between atoms: _3  and  _6
REMARK    4  A    between atoms: _6  and  _7
REMARK    5  A    between atoms: _17  and  _19
REMARK    6  A    between atoms: _19  and  _20
REMARK    7  A    between atoms: _19  and  _22
REMARK    8  A    between atoms: _22  and  _23
REMARK    9  A    between atoms: _28  and  _29
REMARK   10  A    between atoms: _31  and  _33
REMARK   11  A    between atoms: _33  and  _34
REMARK   12  A    between atoms: _33  and  _36
REMARK   13  A    between atoms: _36  and  _37
REMARK   14  A    between atoms: _40  and  _41
REMARK   15  A    between atoms: _46  and  _48
REMARK   16  A    between atoms: _48  and  _49
REMARK   17  A    between atoms: _48  and  _51
REMARK   18  A    between atoms: _51  and  _52
REMARK   19  A    between atoms: _57  and  _59
REMARK   20  A    between atoms: _59  and  _60
REMARK   21  A    between atoms: _63  and  _65
REMARK   22  A    between atoms: _65  and  _66
REMARK   23  A    between atoms: _65  and  _68
REMARK   24  A    between atoms: _68  and  _69
REMARK   25  A    between atoms: _74  and  _76
REMARK   26  A    between atoms: _76  and  _77
REMARK   27  A    between atoms: _76  and  _79
REMARK   28  A    between atoms: _79  and  _80
REMARK   29  A    between atoms: _83  and  _85
REMARK   30  A    between atoms: _85  and  _86
REMARK   31  A    between atoms: _85  and  _88
REMARK   32  A    between atoms: _88  and  _89
REMARK   33  A    between atoms: _89  and  _90
REMARK   34  A    between atoms: _95  and  _97
REMARK   35  A    between atoms: _97  and  _98
REMARK   36  A    between atoms: _97  and  _100
REMARK   37  A    between atoms: _100  and  _101
REMARK   38  A    between atoms: _107  and  _109
REMARK   39  A    between atoms: _120  and  _123
REMARK   40  A    between atoms: _123  and  _124
REMARK   41  A    between atoms: _132  and  _133
REMARK   42  A    between atoms: _141  and  _143
REMARK   43  A    between atoms: _143  and  _144
REMARK   44  A    between atoms: _143  and  _146
REMARK   45  A    between atoms: _146  and  _147
REMARK   46  A    between atoms: _147  and  _148
REMARK   47  A    between atoms: _151  and  _153
REMARK   48  A    between atoms: _153  and  _154
REMARK   49  A    between atoms: _153  and  _156
REMARK   50  A    between atoms: _156  and  _157
REMARK   51  A    between atoms: _162  and  _164
REMARK   52  A    between atoms: _164  and  _165
REMARK   53  A    between atoms: _164  and  _167
REMARK   54  A    between atoms: _167  and  _168
REMARK   55  A    between atoms: _168  and  _169
REMARK   56  A    between atoms: _172  and  _174
REMARK   57  A    between atoms: _174  and  _175
REMARK   58  A    between atoms: _174  and  _177
REMARK   59  A    between atoms: _177  and  _178
REMARK   60  A    between atoms: _181  and  _183
REMARK   61  A    between atoms: _183  and  _184
REMARK   62  A    between atoms: _183  and  _186
REMARK   63  A    between atoms: _186  and  _187
REMARK   64  A    between atoms: _188  and  ZN_420
REMARK   65  A    between atoms: _192  and  _194
REMARK   66  A    between atoms: _194  and  _195
REMARK   67  A    between atoms: _194  and  _197
REMARK   68  A    between atoms: _197  and  _198
REMARK   69  A    between atoms: _201  and  _203
REMARK   70  A    between atoms: _203  and  _204
REMARK   71  A    between atoms: _203  and  _206
REMARK   72  A    between atoms: _209  and  _211
REMARK   73  A    between atoms: _211  and  _212
REMARK   74  A    between atoms: _211  and  _214
REMARK   75  A    between atoms: _214  and  _215
REMARK   76  A    between atoms: _220  and  _222
REMARK   77  A    between atoms: _222  and  _223
REMARK   78  A    between atoms: _222  and  _225
REMARK   79  A    between atoms: _225  and  _226
REMARK   80  A    between atoms: _232  and  _234
REMARK   81  A    between atoms: _234  and  _235
REMARK   82  A    between atoms: _237  and  _239
REMARK   83  A    between atoms: _239  and  _240
REMARK   84  A    between atoms: _239  and  _242
REMARK   85  A    between atoms: _245  and  _247
REMARK   86  A    between atoms: _247  and  _248
REMARK   87  A    between atoms: _247  and  _250
REMARK   88  A    between atoms: _250  and  _251
REMARK   89  A    between atoms: _251  and  _252
REMARK   90  A    between atoms: _257  and  _259
REMARK   91  A    between atoms: _259  and  _260
REMARK   92  A    between atoms: _259  and  _262
REMARK   93  A    between atoms: _262  and  _263
REMARK   94  A    between atoms: _266  and  _268
REMARK   95  A    between atoms: _268  and  _269
REMARK   96  A    between atoms: _272  and  _274
REMARK   97  A    between atoms: _274  and  _275
REMARK   98  A    between atoms: _274  and  _277
REMARK   99  A    between atoms: _280  and  _282
REMARK  100  A    between atoms: _282  and  _283
REMARK  101  A    between atoms: _282  and  _285
REMARK  102  A    between atoms: _285  and  _286
REMARK  103  A    between atoms: _289  and  _291
REMARK  104  A    between atoms: _291  and  _292
REMARK  105  A    between atoms: _294  and  _296
REMARK  106  A    between atoms: _296  and  _297
REMARK  107  A    between atoms: _296  and  _299
REMARK  108  A    between atoms: _299  and  _300
REMARK  109  A    between atoms: _302  and  _304
REMARK  110  A    between atoms: _304  and  _305
REMARK  111  A    between atoms: _304  and  _307
REMARK  112  A    between atoms: _307  and  _308
REMARK  113  A    between atoms: _311  and  _313
REMARK  114  A    between atoms: _313  and  _314
REMARK  115  A    between atoms: _313  and  _316
REMARK  116  A    between atoms: _316  and  _317
REMARK  117  A    between atoms: _320  and  _322
REMARK  118  A    between atoms: _322  and  _323
REMARK  119  A    between atoms: _322  and  _325
REMARK  120  A    between atoms: _325  and  _326
REMARK  121  A    between atoms: _330  and  _331
REMARK  122  A    between atoms: _337  and  _338
REMARK  123  A    between atoms: _343  and  _345
REMARK  124  A    between atoms: _345  and  _346
REMARK  125  A    between atoms: _345  and  _348
REMARK  126  A    between atoms: _348  and  _349
REMARK  127  A    between atoms: _352  and  _354
REMARK  128  A    between atoms: _354  and  _355
REMARK  129  A    between atoms: _354  and  _357
REMARK  130  A    between atoms: _357  and  _358
REMARK  131  A    between atoms: _361  and  _363
REMARK  132  A    between atoms: _363  and  _364
REMARK  133  A    between atoms: _363  and  _366
REMARK  134  A    between atoms: _368  and  _370
REMARK  135  A    between atoms: _370  and  _371
REMARK  136  A    between atoms: _370  and  _373
REMARK  137  A    between atoms: _376  and  _378
REMARK  138  A    between atoms: _378  and  _379
REMARK  139  A    between atoms: _378  and  _381
REMARK  140  A    between atoms: _381  and  _382
REMARK  141  A    between atoms: _392  and  _394
REMARK  142  A    between atoms: _394  and  _395
REMARK  143  A    between atoms: _394  and  _397
REMARK  144  A    between atoms: _397  and  _398
REMARK  145  A    between atoms: _403  and  _405
REMARK  146  A    between atoms: _405  and  _406
REMARK  147  A    between atoms: _405  and  _408
REMARK  148  A    between atoms: _408  and  _409
REMARK  149  A    between atoms: _409  and  _410
REMARK  150  A    between atoms: _410  and  _411
REMARK                            x       y       z     vdW  Elec       q    Type
REMARK                         _______ _______ _______ _____ _____    ______ ____
ROOT
ATOM      1  CG  TRP A   1      -8.792   0.117  24.092  0.00  0.00    -0.002 A 
ATOM      2  CD1 TRP A   1      -7.583   0.730  24.290  0.00  0.00    +0.068 A 
ATOM      3  NE1 TRP A   1      -6.845   0.701  23.129  0.00  0.00    -0.352 N 
ATOM      4  HE1 TRP A   1      -5.892   1.101  23.008  0.00  0.00    +0.166 HD
ATOM      5  CE2 TRP A   1      -7.569   0.060  22.157  0.00  0.00    +0.056 A 
ATOM      6  CZ2 TRP A   1      -7.247  -0.214  20.825  0.00  0.00    +0.017 A 
ATOM      7  CH2 TRP A   1      -8.182  -0.883  20.072  0.00  0.00    +0.001 A 
ATOM      8  CZ3 TRP A   1      -9.415  -1.280  20.616  0.00  0.00    +0.000 A 
ATOM      9  CE3 TRP A   1      -9.735  -1.006  21.938  0.00  0.00    +0.001 A 
ATOM     10  CD2 TRP A   1      -8.801  -0.325  22.731  0.00  0.00    +0.013 A 
ENDROOT
BRANCH   1  11
ATOM     11  CB  TRP A   1      -9.919   0.015  25.057  0.00  0.00    +0.053 C 
BRANCH  11  12
ATOM     12  CA  TRP A   1     -10.938   1.156  24.917  0.00  0.00    +0.137 C 
BRANCH  12  13
ATOM     13  N   TRP A   1     -10.487   2.345  25.621  0.00  0.00    -0.239 NA
ATOM     14  H   TRP A   1      -9.897   2.240  26.471  0.00  0.00    +0.142 HD
ENDBRANCH  12  13
BRANCH  12  15
ATOM     15  C   TRP A   1     -12.286   0.673  25.405  0.00  0.00    +0.224 C 
ATOM     16  O   TRP A   1     -12.535   0.599  26.604  0.00  0.00    -0.287 OA
ENDBRANCH  12  15
ENDBRANCH  11  12
ENDBRANCH   1  11
TORSDOF 4
REMARK  Name = ../refined-set-2016/3ibu/3ibu_pocket.pdb
REMARK  150 active torsions:
REMARK  status: ('A' for Active; 'I' for Inactive)
REMARK    1  A    between atoms: _1  and  _3
REMARK    2  A    between atoms: _3  and  _4
REMARK    3  A    between atoms: _3  and  _6
REMARK    4  A    between atoms: _6  and  _7
REMARK    5  A    between atoms: _17  and  _19
REMARK    6  A    between atoms: _19  and  _20
REMARK    7  A    between atoms: _19  and  _22
REMARK    8  A    between atoms: _22  and  _23
REMARK    9  A    between atoms: _28  and  _29
REMARK   10  A    between atoms: _31  and  _33
REMARK   11  A    between atoms: _33  and  _34
REMARK   12  A    between atoms: _33  and  _36
REMARK   13  A    between atoms: _36  and  _37
REMARK   14  A    between atoms: _40  and  _41
REMARK   15  A    between atoms: _46  and  _48
REMARK   16  A    between atoms: _48  and  _49
REMARK   17  A    between atoms: _48  and  _51
REMARK   18  A    between atoms: _51  and  _52
REMARK   19  A    between atoms: _57  and  _59
REMARK   20  A    between atoms: _59  and  _60
REMARK   21  A    between atoms: _63  and  _65
REMARK   22  A    between atoms: _65  and  _66
REMARK   23  A    between atoms: _65  and  _68
REMARK   24  A    between atoms: _68  and  _69
REMARK   25  A    between atoms: _74  and  _76
REMARK   26  A    between atoms: _76  and  _77
REMARK   27  A    between atoms: _76  and  _79
REMARK   28  A    between atoms: _79  and  _80
REMARK   29  A    between atoms: _83  and  _85
REMARK   30  A    between atoms: _85  and  _86
REMARK   31  A    between atoms: _85  and  _88
REMARK   32  A    between atoms: _88  and  _89
REMARK   33  A    between atoms: _89  and  _90
REMARK   34  A    between atoms: _95  and  _97
REMARK   35  A    between atoms: _97  and  _98
REMARK   36  A    between atoms: _97  and  _100
REMARK   37  A    between atoms: _100  and  _101
REMARK   38  A    between atoms: _107  and  _109
REMARK   39  A    between atoms: _120  and  _123
REMARK   40  A    between atoms: _123  and  _124
REMARK   41  A    between atoms: _132  and  _133
REMARK   42  A    between atoms: _141  and  _143
REMARK   43  A    between atoms: _143  and  _144
REMARK   44  A    between atoms: _143  and  _146
REMARK   45  A    between atoms: _146  and  _147
REMARK   46  A    between atoms: _147  and  _148
REMARK   47  A    between atoms: _151  and  _153
REMARK   48  A    between atoms: _153  and  _154
REMARK   49  A    between atoms: _153  and  _156
REMARK   50  A    between atoms: _156  and  _157
REMARK   51  A    between atoms: _162  and  _164
REMARK   52  A    between atoms: _164  and  _165
REMARK   53  A    between atoms: _164  and  _167
REMARK   54  A    between atoms: _167  and  _168
REMARK   55  A    between atoms: _168  and  _169
REMARK   56  A    between atoms: _172  and  _174
REMARK   57  A    between atoms: _174  and  _175
REMARK   58  A    between atoms: _174  and  _177
REMARK   59  A    between atoms: _177  and  _178
REMARK   60  A    between atoms: _181  and  _183
REMARK   61  A    between atoms: _183  and  _184
REMARK   62  A    between atoms: _183  and  _186
REMARK   63  A    between atoms: _186  and  _187
REMARK   64  A    between atoms: _188  and  ZN_420
REMARK   65  A    between atoms: _192  and  _194
REMARK   66  A    between atoms: _194  and  _195
REMARK   67  A    between atoms: _194  and  _197
REMARK   68  A    between atoms: _197  and  _198
REMARK   69  A    between atoms: _201  and  _203
REMARK   70  A    between atoms: _203  and  _204
REMARK   71  A    between atoms: _203  and  _206
REMARK   72  A    between atoms: _209  and  _211
REMARK   73  A    between atoms: _211  and  _212
REMARK   74  A    between atoms: _211  and  _214
REMARK   75  A    between atoms: _214  and  _215
REMARK   76  A    between atoms: _220  and  _222
REMARK   77  A    between atoms: _222  and  _223
REMARK   78  A    between atoms: _222  and  _225
REMARK   79  A    between atoms: _225  and  _226
REMARK   80  A    between atoms: _232  and  _234
REMARK   81  A    between atoms: _234  and  _235
REMARK   82  A    between atoms: _237  and  _239
REMARK   83  A    between atoms: _239  and  _240
REMARK   84  A    between atoms: _239  and  _242
REMARK   85  A    between atoms: _245  and  _247
REMARK   86  A    between atoms: _247  and  _248
REMARK   87  A    between atoms: _247  and  _250
REMARK   88  A    between atoms: _250  and  _251
REMARK   89  A    between atoms: _251  and  _252
REMARK   90  A    between atoms: _257  and  _259
REMARK   91  A    between atoms: _259  and  _260
REMARK   92  A    between atoms: _259  and  _262
REMARK   93  A    between atoms: _262  and  _263
REMARK   94  A    between atoms: _266  and  _268
REMARK   95  A    between atoms: _268  and  _269
REMARK   96  A    between atoms: _272  and  _274
REMARK   97  A    between atoms: _274  and  _275
REMARK   98  A    between atoms: _274  and  _277
REMARK   99  A    between atoms: _280  and  _282
REMARK  100  A    between atoms: _282  and  _283
REMARK  101  A    between atoms: _282  and  _285
REMARK  102  A    between atoms: _285  and  _286
REMARK  103  A    between atoms: _289  and  _291
REMARK  104  A    between atoms: _291  and  _292
REMARK  105  A    between atoms: _294  and  _296
REMARK  106  A    between atoms: _296  and  _297
REMARK  107  A    between atoms: _296  and  _299
REMARK  108  A    between atoms: _299  and  _300
REMARK  109  A    between atoms: _302  and  _304
REMARK  110  A    between atoms: _304  and  _305
REMARK  111  A    between atoms: _304  and  _307
REMARK  112  A    between atoms: _307  and  _308
REMARK  113  A    between atoms: _311  and  _313
REMARK  114  A    between atoms: _313  and  _314
REMARK  115  A    between atoms: _313  and  _316
REMARK  116  A    between atoms: _316  and  _317
REMARK  117  A    between atoms: _320  and  _322
REMARK  118  A    between atoms: _322  and  _323
REMARK  119  A    between atoms: _322  and  _325
REMARK  120  A    between atoms: _325  and  _326
REMARK  121  A    between atoms: _330  and  _331
REMARK  122  A    between atoms: _337  and  _338
REMARK  123  A    between atoms: _343  and  _345
REMARK  124  A    between atoms: _345  and  _346
REMARK  125  A    between atoms: _345  and  _348
REMARK  126  A    between atoms: _348  and  _349
REMARK  127  A    between atoms: _352  and  _354
REMARK  128  A    between atoms: _354  and  _355
REMARK  129  A    between atoms: _354  and  _357
REMARK  130  A    between atoms: _357  and  _358
REMARK  131  A    between atoms: _361  and  _363
REMARK  132  A    between atoms: _363  and  _364
REMARK  133  A    between atoms: _363  and  _366
REMARK  134  A    between atoms: _368  and  _370
REMARK  135  A    between atoms: _370  and  _371
REMARK  136  A    between atoms: _370  and  _373
REMARK  137  A    between atoms: _376  and  _378
REMARK  138  A    between atoms: _378  and  _379
REMARK  139  A    between atoms: _378  and  _381
REMARK  140  A    between atoms: _381  and  _382
REMARK  141  A    between atoms: _392  and  _394
REMARK  142  A    between atoms: _394  and  _395
REMARK  143  A    between atoms: _394  and  _397
REMARK  144  A    between atoms: _397  and  _398
REMARK  145  A    between atoms: _403  and  _405
REMARK  146  A    between atoms: _405  and  _406
REMARK  147  A    between atoms: _405  and  _408
REMARK  148  A    between atoms: _408  and  _409
REMARK  149  A    between atoms: _409  and  _410
REMARK  150  A    between atoms: _410  and  _411
REMARK                            x       y       z     vdW  Elec       q    Type
REMARK                         _______ _______ _______ _____ _____    ______ ____
ROOT
ATOM      1  CB  ASN A   1      -1.988  -7.372  10.362  0.00  0.00    +0.110 C 
ENDROOT
BRANCH   1   2
ATOM      2  CG  ASN A   1      -3.484  -7.523  10.153  0.00  0.00    +0.221 C 
ATOM      3  OD1 ASN A   1      -4.137  -8.357  10.781  0.00  0.00    -0.275 OA
ATOM      4  ND2 ASN A   1      -4.036  -6.708   9.259  0.00  0.00    -0.329 N 
ATOM      5 HD21 ASN A   1      -5.057  -6.761   9.068  0.00  0.00    +0.145 HD
ATOM      6 HD22 ASN A   1      -3.447  -6.018   8.751  0.00  0.00    +0.145 HD
ENDBRANCH   1   2
BRANCH   1   7
ATOM      7  CA  ASN A   1      -1.454  -8.236  11.516  0.00  0.00    +0.142 C 
BRANCH   7   8
ATOM      8  N   ASN A   1      -1.823  -9.629  11.312  0.00  0.00    -0.239 NA
ATOM      9  H   ASN A   1      -2.754  -9.856  10.908  0.00  0.00    +0.142 HD
ENDBRANCH   7   8
BRANCH   7  10
ATOM     10  C   ASN A   1      -2.005  -7.768  12.863  0.00  0.00    +0.225 C 
ATOM     11  O   ASN A   1      -2.654  -6.727  12.961  0.00  0.00    -0.287 OA
ENDBRANCH   7  10
ENDBRANCH   1   7
TORSDOF 4
REMARK  Name = ../refined-set-2016/3ibu/3ibu_pocket.pdb
REMARK  150 active torsions:
REMARK  status: ('A' for Active; 'I' for Inactive)
REMARK    1  A    between atoms: _1  and  _3
REMARK    2  A    between atoms: _3  and  _4
REMARK    3  A    between atoms: _3  and  _6
REMARK    4  A    between atoms: _6  and  _7
REMARK    5  A    between atoms: _17  and  _19
REMARK    6  A    between atoms: _19  and  _20
REMARK    7  A    between atoms: _19  and  _22
REMARK    8  A    between atoms: _22  and  _23
REMARK    9  A    between atoms: _28  and  _29
REMARK   10  A    between atoms: _31  and  _33
REMARK   11  A    between atoms: _33  and  _34
REMARK   12  A    between atoms: _33  and  _36
REMARK   13  A    between atoms: _36  and  _37
REMARK   14  A    between atoms: _40  and  _41
REMARK   15  A    between atoms: _46  and  _48
REMARK   16  A    between atoms: _48  and  _49
REMARK   17  A    between atoms: _48  and  _51
REMARK   18  A    between atoms: _51  and  _52
REMARK   19  A    between atoms: _57  and  _59
REMARK   20  A    between atoms: _59  and  _60
REMARK   21  A    between atoms: _63  and  _65
REMARK   22  A    between atoms: _65  and  _66
REMARK   23  A    between atoms: _65  and  _68
REMARK   24  A    between atoms: _68  and  _69
REMARK   25  A    between atoms: _74  and  _76
REMARK   26  A    between atoms: _76  and  _77
REMARK   27  A    between atoms: _76  and  _79
REMARK   28  A    between atoms: _79  and  _80
REMARK   29  A    between atoms: _83  and  _85
REMARK   30  A    between atoms: _85  and  _86
REMARK   31  A    between atoms: _85  and  _88
REMARK   32  A    between atoms: _88  and  _89
REMARK   33  A    between atoms: _89  and  _90
REMARK   34  A    between atoms: _95  and  _97
REMARK   35  A    between atoms: _97  and  _98
REMARK   36  A    between atoms: _97  and  _100
REMARK   37  A    between atoms: _100  and  _101
REMARK   38  A    between atoms: _107  and  _109
REMARK   39  A    between atoms: _120  and  _123
REMARK   40  A    between atoms: _123  and  _124
REMARK   41  A    between atoms: _132  and  _133
REMARK   42  A    between atoms: _141  and  _143
REMARK   43  A    between atoms: _143  and  _144
REMARK   44  A    between atoms: _143  and  _146
REMARK   45  A    between atoms: _146  and  _147
REMARK   46  A    between atoms: _147  and  _148
REMARK   47  A    between atoms: _151  and  _153
REMARK   48  A    between atoms: _153  and  _154
REMARK   49  A    between atoms: _153  and  _156
REMARK   50  A    between atoms: _156  and  _157
REMARK   51  A    between atoms: _162  and  _164
REMARK   52  A    between atoms: _164  and  _165
REMARK   53  A    between atoms: _164  and  _167
REMARK   54  A    between atoms: _167  and  _168
REMARK   55  A    between atoms: _168  and  _169
REMARK   56  A    between atoms: _172  and  _174
REMARK   57  A    between atoms: _174  and  _175
REMARK   58  A    between atoms: _174  and  _177
REMARK   59  A    between atoms: _177  and  _178
REMARK   60  A    between atoms: _181  and  _183
REMARK   61  A    between atoms: _183  and  _184
REMARK   62  A    between atoms: _183  and  _186
REMARK   63  A    between atoms: _186  and  _187
REMARK   64  A    between atoms: _188  and  ZN_420
REMARK   65  A    between atoms: _192  and  _194
REMARK   66  A    between atoms: _194  and  _195
REMARK   67  A    between atoms: _194  and  _197
REMARK   68  A    between atoms: _197  and  _198
REMARK   69  A    between atoms: _201  and  _203
REMARK   70  A    between atoms: _203  and  _204
REMARK   71  A    between atoms: _203  and  _206
REMARK   72  A    between atoms: _209  and  _211
REMARK   73  A    between atoms: _211  and  _212
REMARK   74  A    between atoms: _211  and  _214
REMARK   75  A    between atoms: _214  and  _215
REMARK   76  A    between atoms: _220  and  _222
REMARK   77  A    between atoms: _222  and  _223
REMARK   78  A    between atoms: _222  and  _225
REMARK   79  A    between atoms: _225  and  _226
REMARK   80  A    between atoms: _232  and  _234
REMARK   81  A    between atoms: _234  and  _235
REMARK   82  A    between atoms: _237  and  _239
REMARK   83  A    between atoms: _239  and  _240
REMARK   84  A    between atoms: _239  and  _242
REMARK   85  A    between atoms: _245  and  _247
REMARK   86  A    between atoms: _247  and  _248
REMARK   87  A    between atoms: _247  and  _250
REMARK   88  A    between atoms: _250  and  _251
REMARK   89  A    between atoms: _251  and  _252
REMARK   90  A    between atoms: _257  and  _259
REMARK   91  A    between atoms: _259  and  _260
REMARK   92  A    between atoms: _259  and  _262
REMARK   93  A    between atoms: _262  and  _263
REMARK   94  A    between atoms: _266  and  _268
REMARK   95  A    between atoms: _268  and  _269
REMARK   96  A    between atoms: _272  and  _274
REMARK   97  A    between atoms: _274  and  _275
REMARK   98  A    between atoms: _274  and  _277
REMARK   99  A    between atoms: _280  and  _282
REMARK  100  A    between atoms: _282  and  _283
REMARK  101  A    between atoms: _282  and  _285
REMARK  102  A    between atoms: _285  and  _286
REMARK  103  A    between atoms: _289  and  _291
REMARK  104  A    between atoms: _291  and  _292
REMARK  105  A    between atoms: _294  and  _296
REMARK  106  A    between atoms: _296  and  _297
REMARK  107  A    between atoms: _296  and  _299
REMARK  108  A    between atoms: _299  and  _300
REMARK  109  A    between atoms: _302  and  _304
REMARK  110  A    between atoms: _304  and  _305
REMARK  111  A    between atoms: _304  and  _307
REMARK  112  A    between atoms: _307  and  _308
REMARK  113  A    between atoms: _311  and  _313
REMARK  114  A    between atoms: _313  and  _314
REMARK  115  A    between atoms: _313  and  _316
REMARK  116  A    between atoms: _316  and  _317
REMARK  117  A    between atoms: _320  and  _322
REMARK  118  A    between atoms: _322  and  _323
REMARK  119  A    between atoms: _322  and  _325
REMARK  120  A    between atoms: _325  and  _326
REMARK  121  A    between atoms: _330  and  _331
REMARK  122  A    between atoms: _337  and  _338
REMARK  123  A    between atoms: _343  and  _345
REMARK  124  A    between atoms: _345  and  _346
REMARK  125  A    between atoms: _345  and  _348
REMARK  126  A    between atoms: _348  and  _349
REMARK  127  A    between atoms: _352  and  _354
REMARK  128  A    between atoms: _354  and  _355
REMARK  129  A    between atoms: _354  and  _357
REMARK  130  A    between atoms: _357  and  _358
REMARK  131  A    between atoms: _361  and  _363
REMARK  132  A    between atoms: _363  and  _364
REMARK  133  A    between atoms: _363  and  _366
REMARK  134  A    between atoms: _368  and  _370
REMARK  135  A    between atoms: _370  and  _371
REMARK  136  A    between atoms: _370  and  _373
REMARK  137  A    between atoms: _376  and  _378
REMARK  138  A    between atoms: _378  and  _379
REMARK  139  A    between atoms: _378  and  _381
REMARK  140  A    between atoms: _381  and  _382
REMARK  141  A    between atoms: _392  and  _394
REMARK  142  A    between atoms: _394  and  _395
REMARK  143  A    between atoms: _394  and  _397
REMARK  144  A    between atoms: _397  and  _398
REMARK  145  A    between atoms: _403  and  _405
REMARK  146  A    between atoms: _405  and  _406
REMARK  147  A    between atoms: _405  and  _408
REMARK  148  A    between atoms: _408  and  _409
REMARK  149  A    between atoms: _409  and  _410
REMARK  150  A    between atoms: _410  and  _411
REMARK                            x       y       z     vdW  Elec       q    Type
REMARK                         _______ _______ _______ _____ _____    ______ ____
ROOT
ATOM      1  NE  ARG A   1       2.216  -3.777  21.088  0.00  0.00    -0.265 N 
ATOM      2  CZ  ARG A   1       2.407  -2.757  21.921  0.00  0.00    +0.342 C 
ATOM      3  NH2 ARG A   1       3.618  -2.541  22.429  0.00  0.00    -0.292 N 
ATOM      4 HH21 ARG A   1       3.774  -1.746  23.081  0.00  0.00    +0.255 HD
ATOM      5 HH22 ARG A   1       4.408  -3.168  22.174  0.00  0.00    +0.255 HD
ATOM      6  NH1 ARG A   1       1.409  -1.936  22.229  0.00  0.00    -0.292 N 
ATOM      7 HH11 ARG A   1       1.571  -1.142  22.881  0.00  0.00    +0.255 HD
ATOM      8 HH12 ARG A   1       0.466  -2.087  21.818  0.00  0.00    +0.255 HD
ATOM      9  HE  ARG A   1       3.031  -4.392  20.890  0.00  0.00    +0.259 HD
ENDROOT
BRANCH   1  10
ATOM     10  CD  ARG A   1       0.951  -4.102  20.428  0.00  0.00    +0.174 C 
BRANCH  10  11
ATOM     11  CG  ARG A   1       1.041  -5.467  19.757  0.00  0.00    +0.045 C 
BRANCH  11  12
ATOM     12  CB  ARG A   1      -0.041  -5.693  18.708  0.00  0.00    +0.029 C 
BRANCH  12  13
ATOM     13  CA  ARG A   1      -0.141  -7.154  18.250  0.00  0.00    +0.133 C 
BRANCH  13  14
ATOM     14  N   ARG A   1      -1.148  -7.306  17.208  0.00  0.00    -0.239 NA
ATOM     15  H   ARG A   1      -1.995  -6.703  17.234  0.00  0.00    +0.142 HD
ENDBRANCH  13  14
BRANCH  13  16
ATOM     16  C   ARG A   1      -0.638  -8.013  19.414  0.00  0.00    +0.224 C 
ATOM     17  O   ARG A   1      -1.830  -8.016  19.713  0.00  0.00    -0.287 OA
ENDBRANCH  13  16
ENDBRANCH  12  13
ENDBRANCH  11  12
ENDBRANCH  10  11
ENDBRANCH   1  10
TORSDOF 6
REMARK  Name = ../refined-set-2016/3ibu/3ibu_pocket.pdb
REMARK  150 active torsions:
REMARK  status: ('A' for Active; 'I' for Inactive)
REMARK    1  A    between atoms: _1  and  _3
REMARK    2  A    between atoms: _3  and  _4
REMARK    3  A    between atoms: _3  and  _6
REMARK    4  A    between atoms: _6  and  _7
REMARK    5  A    between atoms: _17  and  _19
REMARK    6  A    between atoms: _19  and  _20
REMARK    7  A    between atoms: _19  and  _22
REMARK    8  A    between atoms: _22  and  _23
REMARK    9  A    between atoms: _28  and  _29
REMARK   10  A    between atoms: _31  and  _33
REMARK   11  A    between atoms: _33  and  _34
REMARK   12  A    between atoms: _33  and  _36
REMARK   13  A    between atoms: _36  and  _37
REMARK   14  A    between atoms: _40  and  _41
REMARK   15  A    between atoms: _46  and  _48
REMARK   16  A    between atoms: _48  and  _49
REMARK   17  A    between atoms: _48  and  _51
REMARK   18  A    between atoms: _51  and  _52
REMARK   19  A    between atoms: _57  and  _59
REMARK   20  A    between atoms: _59  and  _60
REMARK   21  A    between atoms: _63  and  _65
REMARK   22  A    between atoms: _65  and  _66
REMARK   23  A    between atoms: _65  and  _68
REMARK   24  A    between atoms: _68  and  _69
REMARK   25  A    between atoms: _74  and  _76
REMARK   26  A    between atoms: _76  and  _77
REMARK   27  A    between atoms: _76  and  _79
REMARK   28  A    between atoms: _79  and  _80
REMARK   29  A    between atoms: _83  and  _85
REMARK   30  A    between atoms: _85  and  _86
REMARK   31  A    between atoms: _85  and  _88
REMARK   32  A    between atoms: _88  and  _89
REMARK   33  A    between atoms: _89  and  _90
REMARK   34  A    between atoms: _95  and  _97
REMARK   35  A    between atoms: _97  and  _98
REMARK   36  A    between atoms: _97  and  _100
REMARK   37  A    between atoms: _100  and  _101
REMARK   38  A    between atoms: _107  and  _109
REMARK   39  A    between atoms: _120  and  _123
REMARK   40  A    between atoms: _123  and  _124
REMARK   41  A    between atoms: _132  and  _133
REMARK   42  A    between atoms: _141  and  _143
REMARK   43  A    between atoms: _143  and  _144
REMARK   44  A    between atoms: _143  and  _146
REMARK   45  A    between atoms: _146  and  _147
REMARK   46  A    between atoms: _147  and  _148
REMARK   47  A    between atoms: _151  and  _153
REMARK   48  A    between atoms: _153  and  _154
REMARK   49  A    between atoms: _153  and  _156
REMARK   50  A    between atoms: _156  and  _157
REMARK   51  A    between atoms: _162  and  _164
REMARK   52  A    between atoms: _164  and  _165
REMARK   53  A    between atoms: _164  and  _167
REMARK   54  A    between atoms: _167  and  _168
REMARK   55  A    between atoms: _168  and  _169
REMARK   56  A    between atoms: _172  and  _174
REMARK   57  A    between atoms: _174  and  _175
REMARK   58  A    between atoms: _174  and  _177
REMARK   59  A    between atoms: _177  and  _178
REMARK   60  A    between atoms: _181  and  _183
REMARK   61  A    between atoms: _183  and  _184
REMARK   62  A    between atoms: _183  and  _186
REMARK   63  A    between atoms: _186  and  _187
REMARK   64  A    between atoms: _188  and  ZN_420
REMARK   65  A    between atoms: _192  and  _194
REMARK   66  A    between atoms: _194  and  _195
REMARK   67  A    between atoms: _194  and  _197
REMARK   68  A    between atoms: _197  and  _198
REMARK   69  A    between atoms: _201  and  _203
REMARK   70  A    between atoms: _203  and  _204
REMARK   71  A    between atoms: _203  and  _206
REMARK   72  A    between atoms: _209  and  _211
REMARK   73  A    between atoms: _211  and  _212
REMARK   74  A    between atoms: _211  and  _214
REMARK   75  A    between atoms: _214  and  _215
REMARK   76  A    between atoms: _220  and  _222
REMARK   77  A    between atoms: _222  and  _223
REMARK   78  A    between atoms: _222  and  _225
REMARK   79  A    between atoms: _225  and  _226
REMARK   80  A    between atoms: _232  and  _234
REMARK   81  A    between atoms: _234  and  _235
REMARK   82  A    between atoms: _237  and  _239
REMARK   83  A    between atoms: _239  and  _240
REMARK   84  A    between atoms: _239  and  _242
REMARK   85  A    between atoms: _245  and  _247
REMARK   86  A    between atoms: _247  and  _248
REMARK   87  A    between atoms: _247  and  _250
REMARK   88  A    between atoms: _250  and  _251
REMARK   89  A    between atoms: _251  and  _252
REMARK   90  A    between atoms: _257  and  _259
REMARK   91  A    between atoms: _259  and  _260
REMARK   92  A    between atoms: _259  and  _262
REMARK   93  A    between atoms: _262  and  _263
REMARK   94  A    between atoms: _266  and  _268
REMARK   95  A    between atoms: _268  and  _269
REMARK   96  A    between atoms: _272  and  _274
REMARK   97  A    between atoms: _274  and  _275
REMARK   98  A    between atoms: _274  and  _277
REMARK   99  A    between atoms: _280  and  _282
REMARK  100  A    between atoms: _282  and  _283
REMARK  101  A    between atoms: _282  and  _285
REMARK  102  A    between atoms: _285  and  _286
REMARK  103  A    between atoms: _289  and  _291
REMARK  104  A    between atoms: _291  and  _292
REMARK  105  A    between atoms: _294  and  _296
REMARK  106  A    between atoms: _296  and  _297
REMARK  107  A    between atoms: _296  and  _299
REMARK  108  A    between atoms: _299  and  _300
REMARK  109  A    between atoms: _302  and  _304
REMARK  110  A    between atoms: _304  and  _305
REMARK  111  A    between atoms: _304  and  _307
REMARK  112  A    between atoms: _307  and  _308
REMARK  113  A    between atoms: _311  and  _313
REMARK  114  A    between atoms: _313  and  _314
REMARK  115  A    between atoms: _313  and  _316
REMARK  116  A    between atoms: _316  and  _317
REMARK  117  A    between atoms: _320  and  _322
REMARK  118  A    between atoms: _322  and  _323
REMARK  119  A    between atoms: _322  and  _325
REMARK  120  A    between atoms: _325  and  _326
REMARK  121  A    between atoms: _330  and  _331
REMARK  122  A    between atoms: _337  and  _338
REMARK  123  A    between atoms: _343  and  _345
REMARK  124  A    between atoms: _345  and  _346
REMARK  125  A    between atoms: _345  and  _348
REMARK  126  A    between atoms: _348  and  _349
REMARK  127  A    between atoms: _352  and  _354
REMARK  128  A    between atoms: _354  and  _355
REMARK  129  A    between atoms: _354  and  _357
REMARK  130  A    between atoms: _357  and  _358
REMARK  131  A    between atoms: _361  and  _363
REMARK  132  A    between atoms: _363  and  _364
REMARK  133  A    between atoms: _363  and  _366
REMARK  134  A    between atoms: _368  and  _370
REMARK  135  A    between atoms: _370  and  _371
REMARK  136  A    between atoms: _370  and  _373
REMARK  137  A    between atoms: _376  and  _378
REMARK  138  A    between atoms: _378  and  _379
REMARK  139  A    between atoms: _378  and  _381
REMARK  140  A    between atoms: _381  and  _382
REMARK  141  A    between atoms: _392  and  _394
REMARK  142  A    between atoms: _394  and  _395
REMARK  143  A    between atoms: _394  and  _397
REMARK  144  A    between atoms: _397  and  _398
REMARK  145  A    between atoms: _403  and  _405
REMARK  146  A    between atoms: _405  and  _406
REMARK  147  A    between atoms: _405  and  _408
REMARK  148  A    between atoms: _408  and  _409
REMARK  149  A    between atoms: _409  and  _410
REMARK  150  A    between atoms: _410  and  _411
REMARK                            x       y       z     vdW  Elec       q    Type
REMARK                         _______ _______ _______ _____ _____    ______ ____
ROOT
ATOM      1  O   HOH     1      -4.016   5.907   9.844  0.00  0.00    +0.000 OA
ENDROOT
TORSDOF 0
REMARK  Name = ../refined-set-2016/3ibu/3ibu_pocket.pdb
REMARK  150 active torsions:
REMARK  status: ('A' for Active; 'I' for Inactive)
REMARK    1  A    between atoms: _1  and  _3
REMARK    2  A    between atoms: _3  and  _4
REMARK    3  A    between atoms: _3  and  _6
REMARK    4  A    between atoms: _6  and  _7
REMARK    5  A    between atoms: _17  and  _19
REMARK    6  A    between atoms: _19  and  _20
REMARK    7  A    between atoms: _19  and  _22
REMARK    8  A    between atoms: _22  and  _23
REMARK    9  A    between atoms: _28  and  _29
REMARK   10  A    between atoms: _31  and  _33
REMARK   11  A    between atoms: _33  and  _34
REMARK   12  A    between atoms: _33  and  _36
REMARK   13  A    between atoms: _36  and  _37
REMARK   14  A    between atoms: _40  and  _41
REMARK   15  A    between atoms: _46  and  _48
REMARK   16  A    between atoms: _48  and  _49
REMARK   17  A    between atoms: _48  and  _51
REMARK   18  A    between atoms: _51  and  _52
REMARK   19  A    between atoms: _57  and  _59
REMARK   20  A    between atoms: _59  and  _60
REMARK   21  A    between atoms: _63  and  _65
REMARK   22  A    between atoms: _65  and  _66
REMARK   23  A    between atoms: _65  and  _68
REMARK   24  A    between atoms: _68  and  _69
REMARK   25  A    between atoms: _74  and  _76
REMARK   26  A    between atoms: _76  and  _77
REMARK   27  A    between atoms: _76  and  _79
REMARK   28  A    between atoms: _79  and  _80
REMARK   29  A    between atoms: _83  and  _85
REMARK   30  A    between atoms: _85  and  _86
REMARK   31  A    between atoms: _85  and  _88
REMARK   32  A    between atoms: _88  and  _89
REMARK   33  A    between atoms: _89  and  _90
REMARK   34  A    between atoms: _95  and  _97
REMARK   35  A    between atoms: _97  and  _98
REMARK   36  A    between atoms: _97  and  _100
REMARK   37  A    between atoms: _100  and  _101
REMARK   38  A    between atoms: _107  and  _109
REMARK   39  A    between atoms: _120  and  _123
REMARK   40  A    between atoms: _123  and  _124
REMARK   41  A    between atoms: _132  and  _133
REMARK   42  A    between atoms: _141  and  _143
REMARK   43  A    between atoms: _143  and  _144
REMARK   44  A    between atoms: _143  and  _146
REMARK   45  A    between atoms: _146  and  _147
REMARK   46  A    between atoms: _147  and  _148
REMARK   47  A    between atoms: _151  and  _153
REMARK   48  A    between atoms: _153  and  _154
REMARK   49  A    between atoms: _153  and  _156
REMARK   50  A    between atoms: _156  and  _157
REMARK   51  A    between atoms: _162  and  _164
REMARK   52  A    between atoms: _164  and  _165
REMARK   53  A    between atoms: _164  and  _167
REMARK   54  A    between atoms: _167  and  _168
REMARK   55  A    between atoms: _168  and  _169
REMARK   56  A    between atoms: _172  and  _174
REMARK   57  A    between atoms: _174  and  _175
REMARK   58  A    between atoms: _174  and  _177
REMARK   59  A    between atoms: _177  and  _178
REMARK   60  A    between atoms: _181  and  _183
REMARK   61  A    between atoms: _183  and  _184
REMARK   62  A    between atoms: _183  and  _186
REMARK   63  A    between atoms: _186  and  _187
REMARK   64  A    between atoms: _188  and  ZN_420
REMARK   65  A    between atoms: _192  and  _194
REMARK   66  A    between atoms: _194  and  _195
REMARK   67  A    between atoms: _194  and  _197
REMARK   68  A    between atoms: _197  and  _198
REMARK   69  A    between atoms: _201  and  _203
REMARK   70  A    between atoms: _203  and  _204
REMARK   71  A    between atoms: _203  and  _206
REMARK   72  A    between atoms: _209  and  _211
REMARK   73  A    between atoms: _211  and  _212
REMARK   74  A    between atoms: _211  and  _214
REMARK   75  A    between atoms: _214  and  _215
REMARK   76  A    between atoms: _220  and  _222
REMARK   77  A    between atoms: _222  and  _223
REMARK   78  A    between atoms: _222  and  _225
REMARK   79  A    between atoms: _225  and  _226
REMARK   80  A    between atoms: _232  and  _234
REMARK   81  A    between atoms: _234  and  _235
REMARK   82  A    between atoms: _237  and  _239
REMARK   83  A    between atoms: _239  and  _240
REMARK   84  A    between atoms: _239  and  _242
REMARK   85  A    between atoms: _245  and  _247
REMARK   86  A    between atoms: _247  and  _248
REMARK   87  A    between atoms: _247  and  _250
REMARK   88  A    between atoms: _250  and  _251
REMARK   89  A    between atoms: _251  and  _252
REMARK   90  A    between atoms: _257  and  _259
REMARK   91  A    between atoms: _259  and  _260
REMARK   92  A    between atoms: _259  and  _262
REMARK   93  A    between atoms: _262  and  _263
REMARK   94  A    between atoms: _266  and  _268
REMARK   95  A    between atoms: _268  and  _269
REMARK   96  A    between atoms: _272  and  _274
REMARK   97  A    between atoms: _274  and  _275
REMARK   98  A    between atoms: _274  and  _277
REMARK   99  A    between atoms: _280  and  _282
REMARK  100  A    between atoms: _282  and  _283
REMARK  101  A    between atoms: _282  and  _285
REMARK  102  A    between atoms: _285  and  _286
REMARK  103  A    between atoms: _289  and  _291
REMARK  104  A    between atoms: _291  and  _292
REMARK  105  A    between atoms: _294  and  _296
REMARK  106  A    between atoms: _296  and  _297
REMARK  107  A    between atoms: _296  and  _299
REMARK  108  A    between atoms: _299  and  _300
REMARK  109  A    between atoms: _302  and  _304
REMARK  110  A    between atoms: _304  and  _305
REMARK  111  A    between atoms: _304  and  _307
REMARK  112  A    between atoms: _307  and  _308
REMARK  113  A    between atoms: _311  and  _313
REMARK  114  A    between atoms: _313  and  _314
REMARK  115  A    between atoms: _313  and  _316
REMARK  116  A    between atoms: _316  and  _317
REMARK  117  A    between atoms: _320  and  _322
REMARK  118  A    between atoms: _322  and  _323
REMARK  119  A    between atoms: _322  and  _325
REMARK  120  A    between atoms: _325  and  _326
REMARK  121  A    between atoms: _330  and  _331
REMARK  122  A    between atoms: _337  and  _338
REMARK  123  A    between atoms: _343  and  _345
REMARK  124  A    between atoms: _345  and  _346
REMARK  125  A    between atoms: _345  and  _348
REMARK  126  A    between atoms: _348  and  _349
REMARK  127  A    between atoms: _352  and  _354
REMARK  128  A    between atoms: _354  and  _355
REMARK  129  A    between atoms: _354  and  _357
REMARK  130  A    between atoms: _357  and  _358
REMARK  131  A    between atoms: _361  and  _363
REMARK  132  A    between atoms: _363  and  _364
REMARK  133  A    between atoms: _363  and  _366
REMARK  134  A    between atoms: _368  and  _370
REMARK  135  A    between atoms: _370  and  _371
REMARK  136  A    between atoms: _370  and  _373
REMARK  137  A    between atoms: _376  and  _378
REMARK  138  A    between atoms: _378  and  _379
REMARK  139  A    between atoms: _378  and  _381
REMARK  140  A    between atoms: _381  and  _382
REMARK  141  A    between atoms: _392  and  _394
REMARK  142  A    between atoms: _394  and  _395
REMARK  143  A    between atoms: _394  and  _397
REMARK  144  A    between atoms: _397  and  _398
REMARK  145  A    between atoms: _403  and  _405
REMARK  146  A    between atoms: _405  and  _406
REMARK  147  A    between atoms: _405  and  _408
REMARK  148  A    between atoms: _408  and  _409
REMARK  149  A    between atoms: _409  and  _410
REMARK  150  A    between atoms: _410  and  _411
REMARK                            x       y       z     vdW  Elec       q    Type
REMARK                         _______ _______ _______ _____ _____    ______ ____
ROOT
ATOM      1  O   HOH     1       4.698   6.753  12.896  0.00  0.00    +0.000 OA
ENDROOT
TORSDOF 0
REMARK  Name = ../refined-set-2016/3ibu/3ibu_pocket.pdb
REMARK  150 active torsions:
REMARK  status: ('A' for Active; 'I' for Inactive)
REMARK    1  A    between atoms: _1  and  _3
REMARK    2  A    between atoms: _3  and  _4
REMARK    3  A    between atoms: _3  and  _6
REMARK    4  A    between atoms: _6  and  _7
REMARK    5  A    between atoms: _17  and  _19
REMARK    6  A    between atoms: _19  and  _20
REMARK    7  A    between atoms: _19  and  _22
REMARK    8  A    between atoms: _22  and  _23
REMARK    9  A    between atoms: _28  and  _29
REMARK   10  A    between atoms: _31  and  _33
REMARK   11  A    between atoms: _33  and  _34
REMARK   12  A    between atoms: _33  and  _36
REMARK   13  A    between atoms: _36  and  _37
REMARK   14  A    between atoms: _40  and  _41
REMARK   15  A    between atoms: _46  and  _48
REMARK   16  A    between atoms: _48  and  _49
REMARK   17  A    between atoms: _48  and  _51
REMARK   18  A    between atoms: _51  and  _52
REMARK   19  A    between atoms: _57  and  _59
REMARK   20  A    between atoms: _59  and  _60
REMARK   21  A    between atoms: _63  and  _65
REMARK   22  A    between atoms: _65  and  _66
REMARK   23  A    between atoms: _65  and  _68
REMARK   24  A    between atoms: _68  and  _69
REMARK   25  A    between atoms: _74  and  _76
REMARK   26  A    between atoms: _76  and  _77
REMARK   27  A    between atoms: _76  and  _79
REMARK   28  A    between atoms: _79  and  _80
REMARK   29  A    between atoms: _83  and  _85
REMARK   30  A    between atoms: _85  and  _86
REMARK   31  A    between atoms: _85  and  _88
REMARK   32  A    between atoms: _88  and  _89
REMARK   33  A    between atoms: _89  and  _90
REMARK   34  A    between atoms: _95  and  _97
REMARK   35  A    between atoms: _97  and  _98
REMARK   36  A    between atoms: _97  and  _100
REMARK   37  A    between atoms: _100  and  _101
REMARK   38  A    between atoms: _107  and  _109
REMARK   39  A    between atoms: _120  and  _123
REMARK   40  A    between atoms: _123  and  _124
REMARK   41  A    between atoms: _132  and  _133
REMARK   42  A    between atoms: _141  and  _143
REMARK   43  A    between atoms: _143  and  _144
REMARK   44  A    between atoms: _143  and  _146
REMARK   45  A    between atoms: _146  and  _147
REMARK   46  A    between atoms: _147  and  _148
REMARK   47  A    between atoms: _151  and  _153
REMARK   48  A    between atoms: _153  and  _154
REMARK   49  A    between atoms: _153  and  _156
REMARK   50  A    between atoms: _156  and  _157
REMARK   51  A    between atoms: _162  and  _164
REMARK   52  A    between atoms: _164  and  _165
REMARK   53  A    between atoms: _164  and  _167
REMARK   54  A    between atoms: _167  and  _168
REMARK   55  A    between atoms: _168  and  _169
REMARK   56  A    between atoms: _172  and  _174
REMARK   57  A    between atoms: _174  and  _175
REMARK   58  A    between atoms: _174  and  _177
REMARK   59  A    between atoms: _177  and  _178
REMARK   60  A    between atoms: _181  and  _183
REMARK   61  A    between atoms: _183  and  _184
REMARK   62  A    between atoms: _183  and  _186
REMARK   63  A    between atoms: _186  and  _187
REMARK   64  A    between atoms: _188  and  ZN_420
REMARK   65  A    between atoms: _192  and  _194
REMARK   66  A    between atoms: _194  and  _195
REMARK   67  A    between atoms: _194  and  _197
REMARK   68  A    between atoms: _197  and  _198
REMARK   69  A    between atoms: _201  and  _203
REMARK   70  A    between atoms: _203  and  _204
REMARK   71  A    between atoms: _203  and  _206
REMARK   72  A    between atoms: _209  and  _211
REMARK   73  A    between atoms: _211  and  _212
REMARK   74  A    between atoms: _211  and  _214
REMARK   75  A    between atoms: _214  and  _215
REMARK   76  A    between atoms: _220  and  _222
REMARK   77  A    between atoms: _222  and  _223
REMARK   78  A    between atoms: _222  and  _225
REMARK   79  A    between atoms: _225  and  _226
REMARK   80  A    between atoms: _232  and  _234
REMARK   81  A    between atoms: _234  and  _235
REMARK   82  A    between atoms: _237  and  _239
REMARK   83  A    between atoms: _239  and  _240
REMARK   84  A    between atoms: _239  and  _242
REMARK   85  A    between atoms: _245  and  _247
REMARK   86  A    between atoms: _247  and  _248
REMARK   87  A    between atoms: _247  and  _250
REMARK   88  A    between atoms: _250  and  _251
REMARK   89  A    between atoms: _251  and  _252
REMARK   90  A    between atoms: _257  and  _259
REMARK   91  A    between atoms: _259  and  _260
REMARK   92  A    between atoms: _259  and  _262
REMARK   93  A    between atoms: _262  and  _263
REMARK   94  A    between atoms: _266  and  _268
REMARK   95  A    between atoms: _268  and  _269
REMARK   96  A    between atoms: _272  and  _274
REMARK   97  A    between atoms: _274  and  _275
REMARK   98  A    between atoms: _274  and  _277
REMARK   99  A    between atoms: _280  and  _282
REMARK  100  A    between atoms: _282  and  _283
REMARK  101  A    between atoms: _282  and  _285
REMARK  102  A    between atoms: _285  and  _286
REMARK  103  A    between atoms: _289  and  _291
REMARK  104  A    between atoms: _291  and  _292
REMARK  105  A    between atoms: _294  and  _296
REMARK  106  A    between atoms: _296  and  _297
REMARK  107  A    between atoms: _296  and  _299
REMARK  108  A    between atoms: _299  and  _300
REMARK  109  A    between atoms: _302  and  _304
REMARK  110  A    between atoms: _304  and  _305
REMARK  111  A    between atoms: _304  and  _307
REMARK  112  A    between atoms: _307  and  _308
REMARK  113  A    between atoms: _311  and  _313
REMARK  114  A    between atoms: _313  and  _314
REMARK  115  A    between atoms: _313  and  _316
REMARK  116  A    between atoms: _316  and  _317
REMARK  117  A    between atoms: _320  and  _322
REMARK  118  A    between atoms: _322  and  _323
REMARK  119  A    between atoms: _322  and  _325
REMARK  120  A    between atoms: _325  and  _326
REMARK  121  A    between atoms: _330  and  _331
REMARK  122  A    between atoms: _337  and  _338
REMARK  123  A    between atoms: _343  and  _345
REMARK  124  A    between atoms: _345  and  _346
REMARK  125  A    between atoms: _345  and  _348
REMARK  126  A    between atoms: _348  and  _349
REMARK  127  A    between atoms: _352  and  _354
REMARK  128  A    between atoms: _354  and  _355
REMARK  129  A    between atoms: _354  and  _357
REMARK  130  A    between atoms: _357  and  _358
REMARK  131  A    between atoms: _361  and  _363
REMARK  132  A    between atoms: _363  and  _364
REMARK  133  A    between atoms: _363  and  _366
REMARK  134  A    between atoms: _368  and  _370
REMARK  135  A    between atoms: _370  and  _371
REMARK  136  A    between atoms: _370  and  _373
REMARK  137  A    between atoms: _376  and  _378
REMARK  138  A    between atoms: _378  and  _379
REMARK  139  A    between atoms: _378  and  _381
REMARK  140  A    between atoms: _381  and  _382
REMARK  141  A    between atoms: _392  and  _394
REMARK  142  A    between atoms: _394  and  _395
REMARK  143  A    between atoms: _394  and  _397
REMARK  144  A    between atoms: _397  and  _398
REMARK  145  A    between atoms: _403  and  _405
REMARK  146  A    between atoms: _405  and  _406
REMARK  147  A    between atoms: _405  and  _408
REMARK  148  A    between atoms: _408  and  _409
REMARK  149  A    between atoms: _409  and  _410
REMARK  150  A    between atoms: _410  and  _411
REMARK                            x       y       z     vdW  Elec       q    Type
REMARK                         _______ _______ _______ _____ _____    ______ ____
ROOT
ATOM      1  O   HOH     1       3.511   4.257  10.852  0.00  0.00    +0.000 OA
ENDROOT
TORSDOF 0
REMARK  Name = ../refined-set-2016/3ibu/3ibu_pocket.pdb
REMARK  150 active torsions:
REMARK  status: ('A' for Active; 'I' for Inactive)
REMARK    1  A    between atoms: _1  and  _3
REMARK    2  A    between atoms: _3  and  _4
REMARK    3  A    between atoms: _3  and  _6
REMARK    4  A    between atoms: _6  and  _7
REMARK    5  A    between atoms: _17  and  _19
REMARK    6  A    between atoms: _19  and  _20
REMARK    7  A    between atoms: _19  and  _22
REMARK    8  A    between atoms: _22  and  _23
REMARK    9  A    between atoms: _28  and  _29
REMARK   10  A    between atoms: _31  and  _33
REMARK   11  A    between atoms: _33  and  _34
REMARK   12  A    between atoms: _33  and  _36
REMARK   13  A    between atoms: _36  and  _37
REMARK   14  A    between atoms: _40  and  _41
REMARK   15  A    between atoms: _46  and  _48
REMARK   16  A    between atoms: _48  and  _49
REMARK   17  A    between atoms: _48  and  _51
REMARK   18  A    between atoms: _51  and  _52
REMARK   19  A    between atoms: _57  and  _59
REMARK   20  A    between atoms: _59  and  _60
REMARK   21  A    between atoms: _63  and  _65
REMARK   22  A    between atoms: _65  and  _66
REMARK   23  A    between atoms: _65  and  _68
REMARK   24  A    between atoms: _68  and  _69
REMARK   25  A    between atoms: _74  and  _76
REMARK   26  A    between atoms: _76  and  _77
REMARK   27  A    between atoms: _76  and  _79
REMARK   28  A    between atoms: _79  and  _80
REMARK   29  A    between atoms: _83  and  _85
REMARK   30  A    between atoms: _85  and  _86
REMARK   31  A    between atoms: _85  and  _88
REMARK   32  A    between atoms: _88  and  _89
REMARK   33  A    between atoms: _89  and  _90
REMARK   34  A    between atoms: _95  and  _97
REMARK   35  A    between atoms: _97  and  _98
REMARK   36  A    between atoms: _97  and  _100
REMARK   37  A    between atoms: _100  and  _101
REMARK   38  A    between atoms: _107  and  _109
REMARK   39  A    between atoms: _120  and  _123
REMARK   40  A    between atoms: _123  and  _124
REMARK   41  A    between atoms: _132  and  _133
REMARK   42  A    between atoms: _141  and  _143
REMARK   43  A    between atoms: _143  and  _144
REMARK   44  A    between atoms: _143  and  _146
REMARK   45  A    between atoms: _146  and  _147
REMARK   46  A    between atoms: _147  and  _148
REMARK   47  A    between atoms: _151  and  _153
REMARK   48  A    between atoms: _153  and  _154
REMARK   49  A    between atoms: _153  and  _156
REMARK   50  A    between atoms: _156  and  _157
REMARK   51  A    between atoms: _162  and  _164
REMARK   52  A    between atoms: _164  and  _165
REMARK   53  A    between atoms: _164  and  _167
REMARK   54  A    between atoms: _167  and  _168
REMARK   55  A    between atoms: _168  and  _169
REMARK   56  A    between atoms: _172  and  _174
REMARK   57  A    between atoms: _174  and  _175
REMARK   58  A    between atoms: _174  and  _177
REMARK   59  A    between atoms: _177  and  _178
REMARK   60  A    between atoms: _181  and  _183
REMARK   61  A    between atoms: _183  and  _184
REMARK   62  A    between atoms: _183  and  _186
REMARK   63  A    between atoms: _186  and  _187
REMARK   64  A    between atoms: _188  and  ZN_420
REMARK   65  A    between atoms: _192  and  _194
REMARK   66  A    between atoms: _194  and  _195
REMARK   67  A    between atoms: _194  and  _197
REMARK   68  A    between atoms: _197  and  _198
REMARK   69  A    between atoms: _201  and  _203
REMARK   70  A    between atoms: _203  and  _204
REMARK   71  A    between atoms: _203  and  _206
REMARK   72  A    between atoms: _209  and  _211
REMARK   73  A    between atoms: _211  and  _212
REMARK   74  A    between atoms: _211  and  _214
REMARK   75  A    between atoms: _214  and  _215
REMARK   76  A    between atoms: _220  and  _222
REMARK   77  A    between atoms: _222  and  _223
REMARK   78  A    between atoms: _222  and  _225
REMARK   79  A    between atoms: _225  and  _226
REMARK   80  A    between atoms: _232  and  _234
REMARK   81  A    between atoms: _234  and  _235
REMARK   82  A    between atoms: _237  and  _239
REMARK   83  A    between atoms: _239  and  _240
REMARK   84  A    between atoms: _239  and  _242
REMARK   85  A    between atoms: _245  and  _247
REMARK   86  A    between atoms: _247  and  _248
REMARK   87  A    between atoms: _247  and  _250
REMARK   88  A    between atoms: _250  and  _251
REMARK   89  A    between atoms: _251  and  _252
REMARK   90  A    between atoms: _257  and  _259
REMARK   91  A    between atoms: _259  and  _260
REMARK   92  A    between atoms: _259  and  _262
REMARK   93  A    between atoms: _262  and  _263
REMARK   94  A    between atoms: _266  and  _268
REMARK   95  A    between atoms: _268  and  _269
REMARK   96  A    between atoms: _272  and  _274
REMARK   97  A    between atoms: _274  and  _275
REMARK   98  A    between atoms: _274  and  _277
REMARK   99  A    between atoms: _280  and  _282
REMARK  100  A    between atoms: _282  and  _283
REMARK  101  A    between atoms: _282  and  _285
REMARK  102  A    between atoms: _285  and  _286
REMARK  103  A    between atoms: _289  and  _291
REMARK  104  A    between atoms: _291  and  _292
REMARK  105  A    between atoms: _294  and  _296
REMARK  106  A    between atoms: _296  and  _297
REMARK  107  A    between atoms: _296  and  _299
REMARK  108  A    between atoms: _299  and  _300
REMARK  109  A    between atoms: _302  and  _304
REMARK  110  A    between atoms: _304  and  _305
REMARK  111  A    between atoms: _304  and  _307
REMARK  112  A    between atoms: _307  and  _308
REMARK  113  A    between atoms: _311  and  _313
REMARK  114  A    between atoms: _313  and  _314
REMARK  115  A    between atoms: _313  and  _316
REMARK  116  A    between atoms: _316  and  _317
REMARK  117  A    between atoms: _320  and  _322
REMARK  118  A    between atoms: _322  and  _323
REMARK  119  A    between atoms: _322  and  _325
REMARK  120  A    between atoms: _325  and  _326
REMARK  121  A    between atoms: _330  and  _331
REMARK  122  A    between atoms: _337  and  _338
REMARK  123  A    between atoms: _343  and  _345
REMARK  124  A    between atoms: _345  and  _346
REMARK  125  A    between atoms: _345  and  _348
REMARK  126  A    between atoms: _348  and  _349
REMARK  127  A    between atoms: _352  and  _354
REMARK  128  A    between atoms: _354  and  _355
REMARK  129  A    between atoms: _354  and  _357
REMARK  130  A    between atoms: _357  and  _358
REMARK  131  A    between atoms: _361  and  _363
REMARK  132  A    between atoms: _363  and  _364
REMARK  133  A    between atoms: _363  and  _366
REMARK  134  A    between atoms: _368  and  _370
REMARK  135  A    between atoms: _370  and  _371
REMARK  136  A    between atoms: _370  and  _373
REMARK  137  A    between atoms: _376  and  _378
REMARK  138  A    between atoms: _378  and  _379
REMARK  139  A    between atoms: _378  and  _381
REMARK  140  A    between atoms: _381  and  _382
REMARK  141  A    between atoms: _392  and  _394
REMARK  142  A    between atoms: _394  and  _395
REMARK  143  A    between atoms: _394  and  _397
REMARK  144  A    between atoms: _397  and  _398
REMARK  145  A    between atoms: _403  and  _405
REMARK  146  A    between atoms: _405  and  _406
REMARK  147  A    between atoms: _405  and  _408
REMARK  148  A    between atoms: _408  and  _409
REMARK  149  A    between atoms: _409  and  _410
REMARK  150  A    between atoms: _410  and  _411
REMARK                            x       y       z     vdW  Elec       q    Type
REMARK                         _______ _______ _______ _____ _____    ______ ____
ROOT
ATOM      1  O   HOH     1       5.655   9.159  18.482  0.00  0.00    +0.000 OA
ENDROOT
TORSDOF 0
REMARK  Name = ../refined-set-2016/3ibu/3ibu_pocket.pdb
REMARK  150 active torsions:
REMARK  status: ('A' for Active; 'I' for Inactive)
REMARK    1  A    between atoms: _1  and  _3
REMARK    2  A    between atoms: _3  and  _4
REMARK    3  A    between atoms: _3  and  _6
REMARK    4  A    between atoms: _6  and  _7
REMARK    5  A    between atoms: _17  and  _19
REMARK    6  A    between atoms: _19  and  _20
REMARK    7  A    between atoms: _19  and  _22
REMARK    8  A    between atoms: _22  and  _23
REMARK    9  A    between atoms: _28  and  _29
REMARK   10  A    between atoms: _31  and  _33
REMARK   11  A    between atoms: _33  and  _34
REMARK   12  A    between atoms: _33  and  _36
REMARK   13  A    between atoms: _36  and  _37
REMARK   14  A    between atoms: _40  and  _41
REMARK   15  A    between atoms: _46  and  _48
REMARK   16  A    between atoms: _48  and  _49
REMARK   17  A    between atoms: _48  and  _51
REMARK   18  A    between atoms: _51  and  _52
REMARK   19  A    between atoms: _57  and  _59
REMARK   20  A    between atoms: _59  and  _60
REMARK   21  A    between atoms: _63  and  _65
REMARK   22  A    between atoms: _65  and  _66
REMARK   23  A    between atoms: _65  and  _68
REMARK   24  A    between atoms: _68  and  _69
REMARK   25  A    between atoms: _74  and  _76
REMARK   26  A    between atoms: _76  and  _77
REMARK   27  A    between atoms: _76  and  _79
REMARK   28  A    between atoms: _79  and  _80
REMARK   29  A    between atoms: _83  and  _85
REMARK   30  A    between atoms: _85  and  _86
REMARK   31  A    between atoms: _85  and  _88
REMARK   32  A    between atoms: _88  and  _89
REMARK   33  A    between atoms: _89  and  _90
REMARK   34  A    between atoms: _95  and  _97
REMARK   35  A    between atoms: _97  and  _98
REMARK   36  A    between atoms: _97  and  _100
REMARK   37  A    between atoms: _100  and  _101
REMARK   38  A    between atoms: _107  and  _109
REMARK   39  A    between atoms: _120  and  _123
REMARK   40  A    between atoms: _123  and  _124
REMARK   41  A    between atoms: _132  and  _133
REMARK   42  A    between atoms: _141  and  _143
REMARK   43  A    between atoms: _143  and  _144
REMARK   44  A    between atoms: _143  and  _146
REMARK   45  A    between atoms: _146  and  _147
REMARK   46  A    between atoms: _147  and  _148
REMARK   47  A    between atoms: _151  and  _153
REMARK   48  A    between atoms: _153  and  _154
REMARK   49  A    between atoms: _153  and  _156
REMARK   50  A    between atoms: _156  and  _157
REMARK   51  A    between atoms: _162  and  _164
REMARK   52  A    between atoms: _164  and  _165
REMARK   53  A    between atoms: _164  and  _167
REMARK   54  A    between atoms: _167  and  _168
REMARK   55  A    between atoms: _168  and  _169
REMARK   56  A    between atoms: _172  and  _174
REMARK   57  A    between atoms: _174  and  _175
REMARK   58  A    between atoms: _174  and  _177
REMARK   59  A    between atoms: _177  and  _178
REMARK   60  A    between atoms: _181  and  _183
REMARK   61  A    between atoms: _183  and  _184
REMARK   62  A    between atoms: _183  and  _186
REMARK   63  A    between atoms: _186  and  _187
REMARK   64  A    between atoms: _188  and  ZN_420
REMARK   65  A    between atoms: _192  and  _194
REMARK   66  A    between atoms: _194  and  _195
REMARK   67  A    between atoms: _194  and  _197
REMARK   68  A    between atoms: _197  and  _198
REMARK   69  A    between atoms: _201  and  _203
REMARK   70  A    between atoms: _203  and  _204
REMARK   71  A    between atoms: _203  and  _206
REMARK   72  A    between atoms: _209  and  _211
REMARK   73  A    between atoms: _211  and  _212
REMARK   74  A    between atoms: _211  and  _214
REMARK   75  A    between atoms: _214  and  _215
REMARK   76  A    between atoms: _220  and  _222
REMARK   77  A    between atoms: _222  and  _223
REMARK   78  A    between atoms: _222  and  _225
REMARK   79  A    between atoms: _225  and  _226
REMARK   80  A    between atoms: _232  and  _234
REMARK   81  A    between atoms: _234  and  _235
REMARK   82  A    between atoms: _237  and  _239
REMARK   83  A    between atoms: _239  and  _240
REMARK   84  A    between atoms: _239  and  _242
REMARK   85  A    between atoms: _245  and  _247
REMARK   86  A    between atoms: _247  and  _248
REMARK   87  A    between atoms: _247  and  _250
REMARK   88  A    between atoms: _250  and  _251
REMARK   89  A    between atoms: _251  and  _252
REMARK   90  A    between atoms: _257  and  _259
REMARK   91  A    between atoms: _259  and  _260
REMARK   92  A    between atoms: _259  and  _262
REMARK   93  A    between atoms: _262  and  _263
REMARK   94  A    between atoms: _266  and  _268
REMARK   95  A    between atoms: _268  and  _269
REMARK   96  A    between atoms: _272  and  _274
REMARK   97  A    between atoms: _274  and  _275
REMARK   98  A    between atoms: _274  and  _277
REMARK   99  A    between atoms: _280  and  _282
REMARK  100  A    between atoms: _282  and  _283
REMARK  101  A    between atoms: _282  and  _285
REMARK  102  A    between atoms: _285  and  _286
REMARK  103  A    between atoms: _289  and  _291
REMARK  104  A    between atoms: _291  and  _292
REMARK  105  A    between atoms: _294  and  _296
REMARK  106  A    between atoms: _296  and  _297
REMARK  107  A    between atoms: _296  and  _299
REMARK  108  A    between atoms: _299  and  _300
REMARK  109  A    between atoms: _302  and  _304
REMARK  110  A    between atoms: _304  and  _305
REMARK  111  A    between atoms: _304  and  _307
REMARK  112  A    between atoms: _307  and  _308
REMARK  113  A    between atoms: _311  and  _313
REMARK  114  A    between atoms: _313  and  _314
REMARK  115  A    between atoms: _313  and  _316
REMARK  116  A    between atoms: _316  and  _317
REMARK  117  A    between atoms: _320  and  _322
REMARK  118  A    between atoms: _322  and  _323
REMARK  119  A    between atoms: _322  and  _325
REMARK  120  A    between atoms: _325  and  _326
REMARK  121  A    between atoms: _330  and  _331
REMARK  122  A    between atoms: _337  and  _338
REMARK  123  A    between atoms: _343  and  _345
REMARK  124  A    between atoms: _345  and  _346
REMARK  125  A    between atoms: _345  and  _348
REMARK  126  A    between atoms: _348  and  _349
REMARK  127  A    between atoms: _352  and  _354
REMARK  128  A    between atoms: _354  and  _355
REMARK  129  A    between atoms: _354  and  _357
REMARK  130  A    between atoms: _357  and  _358
REMARK  131  A    between atoms: _361  and  _363
REMARK  132  A    between atoms: _363  and  _364
REMARK  133  A    between atoms: _363  and  _366
REMARK  134  A    between atoms: _368  and  _370
REMARK  135  A    between atoms: _370  and  _371
REMARK  136  A    between atoms: _370  and  _373
REMARK  137  A    between atoms: _376  and  _378
REMARK  138  A    between atoms: _378  and  _379
REMARK  139  A    between atoms: _378  and  _381
REMARK  140  A    between atoms: _381  and  _382
REMARK  141  A    between atoms: _392  and  _394
REMARK  142  A    between atoms: _394  and  _395
REMARK  143  A    between atoms: _394  and  _397
REMARK  144  A    between atoms: _397  and  _398
REMARK  145  A    between atoms: _403  and  _405
REMARK  146  A    between atoms: _405  and  _406
REMARK  147  A    between atoms: _405  and  _408
REMARK  148  A    between atoms: _408  and  _409
REMARK  149  A    between atoms: _409  and  _410
REMARK  150  A    between atoms: _410  and  _411
REMARK                            x       y       z     vdW  Elec       q    Type
REMARK                         _______ _______ _______ _____ _____    ______ ____
ROOT
ATOM      1  O   HOH     1       1.064  12.712  19.934  0.00  0.00    +0.000 OA
ENDROOT
TORSDOF 0
REMARK  Name = ../refined-set-2016/3ibu/3ibu_pocket.pdb
REMARK  150 active torsions:
REMARK  status: ('A' for Active; 'I' for Inactive)
REMARK    1  A    between atoms: _1  and  _3
REMARK    2  A    between atoms: _3  and  _4
REMARK    3  A    between atoms: _3  and  _6
REMARK    4  A    between atoms: _6  and  _7
REMARK    5  A    between atoms: _17  and  _19
REMARK    6  A    between atoms: _19  and  _20
REMARK    7  A    between atoms: _19  and  _22
REMARK    8  A    between atoms: _22  and  _23
REMARK    9  A    between atoms: _28  and  _29
REMARK   10  A    between atoms: _31  and  _33
REMARK   11  A    between atoms: _33  and  _34
REMARK   12  A    between atoms: _33  and  _36
REMARK   13  A    between atoms: _36  and  _37
REMARK   14  A    between atoms: _40  and  _41
REMARK   15  A    between atoms: _46  and  _48
REMARK   16  A    between atoms: _48  and  _49
REMARK   17  A    between atoms: _48  and  _51
REMARK   18  A    between atoms: _51  and  _52
REMARK   19  A    between atoms: _57  and  _59
REMARK   20  A    between atoms: _59  and  _60
REMARK   21  A    between atoms: _63  and  _65
REMARK   22  A    between atoms: _65  and  _66
REMARK   23  A    between atoms: _65  and  _68
REMARK   24  A    between atoms: _68  and  _69
REMARK   25  A    between atoms: _74  and  _76
REMARK   26  A    between atoms: _76  and  _77
REMARK   27  A    between atoms: _76  and  _79
REMARK   28  A    between atoms: _79  and  _80
REMARK   29  A    between atoms: _83  and  _85
REMARK   30  A    between atoms: _85  and  _86
REMARK   31  A    between atoms: _85  and  _88
REMARK   32  A    between atoms: _88  and  _89
REMARK   33  A    between atoms: _89  and  _90
REMARK   34  A    between atoms: _95  and  _97
REMARK   35  A    between atoms: _97  and  _98
REMARK   36  A    between atoms: _97  and  _100
REMARK   37  A    between atoms: _100  and  _101
REMARK   38  A    between atoms: _107  and  _109
REMARK   39  A    between atoms: _120  and  _123
REMARK   40  A    between atoms: _123  and  _124
REMARK   41  A    between atoms: _132  and  _133
REMARK   42  A    between atoms: _141  and  _143
REMARK   43  A    between atoms: _143  and  _144
REMARK   44  A    between atoms: _143  and  _146
REMARK   45  A    between atoms: _146  and  _147
REMARK   46  A    between atoms: _147  and  _148
REMARK   47  A    between atoms: _151  and  _153
REMARK   48  A    between atoms: _153  and  _154
REMARK   49  A    between atoms: _153  and  _156
REMARK   50  A    between atoms: _156  and  _157
REMARK   51  A    between atoms: _162  and  _164
REMARK   52  A    between atoms: _164  and  _165
REMARK   53  A    between atoms: _164  and  _167
REMARK   54  A    between atoms: _167  and  _168
REMARK   55  A    between atoms: _168  and  _169
REMARK   56  A    between atoms: _172  and  _174
REMARK   57  A    between atoms: _174  and  _175
REMARK   58  A    between atoms: _174  and  _177
REMARK   59  A    between atoms: _177  and  _178
REMARK   60  A    between atoms: _181  and  _183
REMARK   61  A    between atoms: _183  and  _184
REMARK   62  A    between atoms: _183  and  _186
REMARK   63  A    between atoms: _186  and  _187
REMARK   64  A    between atoms: _188  and  ZN_420
REMARK   65  A    between atoms: _192  and  _194
REMARK   66  A    between atoms: _194  and  _195
REMARK   67  A    between atoms: _194  and  _197
REMARK   68  A    between atoms: _197  and  _198
REMARK   69  A    between atoms: _201  and  _203
REMARK   70  A    between atoms: _203  and  _204
REMARK   71  A    between atoms: _203  and  _206
REMARK   72  A    between atoms: _209  and  _211
REMARK   73  A    between atoms: _211  and  _212
REMARK   74  A    between atoms: _211  and  _214
REMARK   75  A    between atoms: _214  and  _215
REMARK   76  A    between atoms: _220  and  _222
REMARK   77  A    between atoms: _222  and  _223
REMARK   78  A    between atoms: _222  and  _225
REMARK   79  A    between atoms: _225  and  _226
REMARK   80  A    between atoms: _232  and  _234
REMARK   81  A    between atoms: _234  and  _235
REMARK   82  A    between atoms: _237  and  _239
REMARK   83  A    between atoms: _239  and  _240
REMARK   84  A    between atoms: _239  and  _242
REMARK   85  A    between atoms: _245  and  _247
REMARK   86  A    between atoms: _247  and  _248
REMARK   87  A    between atoms: _247  and  _250
REMARK   88  A    between atoms: _250  and  _251
REMARK   89  A    between atoms: _251  and  _252
REMARK   90  A    between atoms: _257  and  _259
REMARK   91  A    between atoms: _259  and  _260
REMARK   92  A    between atoms: _259  and  _262
REMARK   93  A    between atoms: _262  and  _263
REMARK   94  A    between atoms: _266  and  _268
REMARK   95  A    between atoms: _268  and  _269
REMARK   96  A    between atoms: _272  and  _274
REMARK   97  A    between atoms: _274  and  _275
REMARK   98  A    between atoms: _274  and  _277
REMARK   99  A    between atoms: _280  and  _282
REMARK  100  A    between atoms: _282  and  _283
REMARK  101  A    between atoms: _282  and  _285
REMARK  102  A    between atoms: _285  and  _286
REMARK  103  A    between atoms: _289  and  _291
REMARK  104  A    between atoms: _291  and  _292
REMARK  105  A    between atoms: _294  and  _296
REMARK  106  A    between atoms: _296  and  _297
REMARK  107  A    between atoms: _296  and  _299
REMARK  108  A    between atoms: _299  and  _300
REMARK  109  A    between atoms: _302  and  _304
REMARK  110  A    between atoms: _304  and  _305
REMARK  111  A    between atoms: _304  and  _307
REMARK  112  A    between atoms: _307  and  _308
REMARK  113  A    between atoms: _311  and  _313
REMARK  114  A    between atoms: _313  and  _314
REMARK  115  A    between atoms: _313  and  _316
REMARK  116  A    between atoms: _316  and  _317
REMARK  117  A    between atoms: _320  and  _322
REMARK  118  A    between atoms: _322  and  _323
REMARK  119  A    between atoms: _322  and  _325
REMARK  120  A    between atoms: _325  and  _326
REMARK  121  A    between atoms: _330  and  _331
REMARK  122  A    between atoms: _337  and  _338
REMARK  123  A    between atoms: _343  and  _345
REMARK  124  A    between atoms: _345  and  _346
REMARK  125  A    between atoms: _345  and  _348
REMARK  126  A    between atoms: _348  and  _349
REMARK  127  A    between atoms: _352  and  _354
REMARK  128  A    between atoms: _354  and  _355
REMARK  129  A    between atoms: _354  and  _357
REMARK  130  A    between atoms: _357  and  _358
REMARK  131  A    between atoms: _361  and  _363
REMARK  132  A    between atoms: _363  and  _364
REMARK  133  A    between atoms: _363  and  _366
REMARK  134  A    between atoms: _368  and  _370
REMARK  135  A    between atoms: _370  and  _371
REMARK  136  A    between atoms: _370  and  _373
REMARK  137  A    between atoms: _376  and  _378
REMARK  138  A    between atoms: _378  and  _379
REMARK  139  A    between atoms: _378  and  _381
REMARK  140  A    between atoms: _381  and  _382
REMARK  141  A    between atoms: _392  and  _394
REMARK  142  A    between atoms: _394  and  _395
REMARK  143  A    between atoms: _394  and  _397
REMARK  144  A    between atoms: _397  and  _398
REMARK  145  A    between atoms: _403  and  _405
REMARK  146  A    between atoms: _405  and  _406
REMARK  147  A    between atoms: _405  and  _408
REMARK  148  A    between atoms: _408  and  _409
REMARK  149  A    between atoms: _409  and  _410
REMARK  150  A    between atoms: _410  and  _411
REMARK                            x       y       z     vdW  Elec       q    Type
REMARK                         _______ _______ _______ _____ _____    ______ ____
ROOT
ATOM      1  O   HOH     1      -8.366   7.556   8.016  0.00  0.00    +0.000 OA
ENDROOT
TORSDOF 0
REMARK  Name = ../refined-set-2016/3ibu/3ibu_pocket.pdb
REMARK  150 active torsions:
REMARK  status: ('A' for Active; 'I' for Inactive)
REMARK    1  A    between atoms: _1  and  _3
REMARK    2  A    between atoms: _3  and  _4
REMARK    3  A    between atoms: _3  and  _6
REMARK    4  A    between atoms: _6  and  _7
REMARK    5  A    between atoms: _17  and  _19
REMARK    6  A    between atoms: _19  and  _20
REMARK    7  A    between atoms: _19  and  _22
REMARK    8  A    between atoms: _22  and  _23
REMARK    9  A    between atoms: _28  and  _29
REMARK   10  A    between atoms: _31  and  _33
REMARK   11  A    between atoms: _33  and  _34
REMARK   12  A    between atoms: _33  and  _36
REMARK   13  A    between atoms: _36  and  _37
REMARK   14  A    between atoms: _40  and  _41
REMARK   15  A    between atoms: _46  and  _48
REMARK   16  A    between atoms: _48  and  _49
REMARK   17  A    between atoms: _48  and  _51
REMARK   18  A    between atoms: _51  and  _52
REMARK   19  A    between atoms: _57  and  _59
REMARK   20  A    between atoms: _59  and  _60
REMARK   21  A    between atoms: _63  and  _65
REMARK   22  A    between atoms: _65  and  _66
REMARK   23  A    between atoms: _65  and  _68
REMARK   24  A    between atoms: _68  and  _69
REMARK   25  A    between atoms: _74  and  _76
REMARK   26  A    between atoms: _76  and  _77
REMARK   27  A    between atoms: _76  and  _79
REMARK   28  A    between atoms: _79  and  _80
REMARK   29  A    between atoms: _83  and  _85
REMARK   30  A    between atoms: _85  and  _86
REMARK   31  A    between atoms: _85  and  _88
REMARK   32  A    between atoms: _88  and  _89
REMARK   33  A    between atoms: _89  and  _90
REMARK   34  A    between atoms: _95  and  _97
REMARK   35  A    between atoms: _97  and  _98
REMARK   36  A    between atoms: _97  and  _100
REMARK   37  A    between atoms: _100  and  _101
REMARK   38  A    between atoms: _107  and  _109
REMARK   39  A    between atoms: _120  and  _123
REMARK   40  A    between atoms: _123  and  _124
REMARK   41  A    between atoms: _132  and  _133
REMARK   42  A    between atoms: _141  and  _143
REMARK   43  A    between atoms: _143  and  _144
REMARK   44  A    between atoms: _143  and  _146
REMARK   45  A    between atoms: _146  and  _147
REMARK   46  A    between atoms: _147  and  _148
REMARK   47  A    between atoms: _151  and  _153
REMARK   48  A    between atoms: _153  and  _154
REMARK   49  A    between atoms: _153  and  _156
REMARK   50  A    between atoms: _156  and  _157
REMARK   51  A    between atoms: _162  and  _164
REMARK   52  A    between atoms: _164  and  _165
REMARK   53  A    between atoms: _164  and  _167
REMARK   54  A    between atoms: _167  and  _168
REMARK   55  A    between atoms: _168  and  _169
REMARK   56  A    between atoms: _172  and  _174
REMARK   57  A    between atoms: _174  and  _175
REMARK   58  A    between atoms: _174  and  _177
REMARK   59  A    between atoms: _177  and  _178
REMARK   60  A    between atoms: _181  and  _183
REMARK   61  A    between atoms: _183  and  _184
REMARK   62  A    between atoms: _183  and  _186
REMARK   63  A    between atoms: _186  and  _187
REMARK   64  A    between atoms: _188  and  ZN_420
REMARK   65  A    between atoms: _192  and  _194
REMARK   66  A    between atoms: _194  and  _195
REMARK   67  A    between atoms: _194  and  _197
REMARK   68  A    between atoms: _197  and  _198
REMARK   69  A    between atoms: _201  and  _203
REMARK   70  A    between atoms: _203  and  _204
REMARK   71  A    between atoms: _203  and  _206
REMARK   72  A    between atoms: _209  and  _211
REMARK   73  A    between atoms: _211  and  _212
REMARK   74  A    between atoms: _211  and  _214
REMARK   75  A    between atoms: _214  and  _215
REMARK   76  A    between atoms: _220  and  _222
REMARK   77  A    between atoms: _222  and  _223
REMARK   78  A    between atoms: _222  and  _225
REMARK   79  A    between atoms: _225  and  _226
REMARK   80  A    between atoms: _232  and  _234
REMARK   81  A    between atoms: _234  and  _235
REMARK   82  A    between atoms: _237  and  _239
REMARK   83  A    between atoms: _239  and  _240
REMARK   84  A    between atoms: _239  and  _242
REMARK   85  A    between atoms: _245  and  _247
REMARK   86  A    between atoms: _247  and  _248
REMARK   87  A    between atoms: _247  and  _250
REMARK   88  A    between atoms: _250  and  _251
REMARK   89  A    between atoms: _251  and  _252
REMARK   90  A    between atoms: _257  and  _259
REMARK   91  A    between atoms: _259  and  _260
REMARK   92  A    between atoms: _259  and  _262
REMARK   93  A    between atoms: _262  and  _263
REMARK   94  A    between atoms: _266  and  _268
REMARK   95  A    between atoms: _268  and  _269
REMARK   96  A    between atoms: _272  and  _274
REMARK   97  A    between atoms: _274  and  _275
REMARK   98  A    between atoms: _274  and  _277
REMARK   99  A    between atoms: _280  and  _282
REMARK  100  A    between atoms: _282  and  _283
REMARK  101  A    between atoms: _282  and  _285
REMARK  102  A    between atoms: _285  and  _286
REMARK  103  A    between atoms: _289  and  _291
REMARK  104  A    between atoms: _291  and  _292
REMARK  105  A    between atoms: _294  and  _296
REMARK  106  A    between atoms: _296  and  _297
REMARK  107  A    between atoms: _296  and  _299
REMARK  108  A    between atoms: _299  and  _300
REMARK  109  A    between atoms: _302  and  _304
REMARK  110  A    between atoms: _304  and  _305
REMARK  111  A    between atoms: _304  and  _307
REMARK  112  A    between atoms: _307  and  _308
REMARK  113  A    between atoms: _311  and  _313
REMARK  114  A    between atoms: _313  and  _314
REMARK  115  A    between atoms: _313  and  _316
REMARK  116  A    between atoms: _316  and  _317
REMARK  117  A    between atoms: _320  and  _322
REMARK  118  A    between atoms: _322  and  _323
REMARK  119  A    between atoms: _322  and  _325
REMARK  120  A    between atoms: _325  and  _326
REMARK  121  A    between atoms: _330  and  _331
REMARK  122  A    between atoms: _337  and  _338
REMARK  123  A    between atoms: _343  and  _345
REMARK  124  A    between atoms: _345  and  _346
REMARK  125  A    between atoms: _345  and  _348
REMARK  126  A    between atoms: _348  and  _349
REMARK  127  A    between atoms: _352  and  _354
REMARK  128  A    between atoms: _354  and  _355
REMARK  129  A    between atoms: _354  and  _357
REMARK  130  A    between atoms: _357  and  _358
REMARK  131  A    between atoms: _361  and  _363
REMARK  132  A    between atoms: _363  and  _364
REMARK  133  A    between atoms: _363  and  _366
REMARK  134  A    between atoms: _368  and  _370
REMARK  135  A    between atoms: _370  and  _371
REMARK  136  A    between atoms: _370  and  _373
REMARK  137  A    between atoms: _376  and  _378
REMARK  138  A    between atoms: _378  and  _379
REMARK  139  A    between atoms: _378  and  _381
REMARK  140  A    between atoms: _381  and  _382
REMARK  141  A    between atoms: _392  and  _394
REMARK  142  A    between atoms: _394  and  _395
REMARK  143  A    between atoms: _394  and  _397
REMARK  144  A    between atoms: _397  and  _398
REMARK  145  A    between atoms: _403  and  _405
REMARK  146  A    between atoms: _405  and  _406
REMARK  147  A    between atoms: _405  and  _408
REMARK  148  A    between atoms: _408  and  _409
REMARK  149  A    between atoms: _409  and  _410
REMARK  150  A    between atoms: _410  and  _411
REMARK                            x       y       z     vdW  Elec       q    Type
REMARK                         _______ _______ _______ _____ _____    ______ ____
ROOT
ATOM      1  O   HOH     1      -3.050  -0.368  10.565  0.00  0.00    +0.000 OA
ENDROOT
TORSDOF 0
REMARK  Name = ../refined-set-2016/3ibu/3ibu_pocket.pdb
REMARK  150 active torsions:
REMARK  status: ('A' for Active; 'I' for Inactive)
REMARK    1  A    between atoms: _1  and  _3
REMARK    2  A    between atoms: _3  and  _4
REMARK    3  A    between atoms: _3  and  _6
REMARK    4  A    between atoms: _6  and  _7
REMARK    5  A    between atoms: _17  and  _19
REMARK    6  A    between atoms: _19  and  _20
REMARK    7  A    between atoms: _19  and  _22
REMARK    8  A    between atoms: _22  and  _23
REMARK    9  A    between atoms: _28  and  _29
REMARK   10  A    between atoms: _31  and  _33
REMARK   11  A    between atoms: _33  and  _34
REMARK   12  A    between atoms: _33  and  _36
REMARK   13  A    between atoms: _36  and  _37
REMARK   14  A    between atoms: _40  and  _41
REMARK   15  A    between atoms: _46  and  _48
REMARK   16  A    between atoms: _48  and  _49
REMARK   17  A    between atoms: _48  and  _51
REMARK   18  A    between atoms: _51  and  _52
REMARK   19  A    between atoms: _57  and  _59
REMARK   20  A    between atoms: _59  and  _60
REMARK   21  A    between atoms: _63  and  _65
REMARK   22  A    between atoms: _65  and  _66
REMARK   23  A    between atoms: _65  and  _68
REMARK   24  A    between atoms: _68  and  _69
REMARK   25  A    between atoms: _74  and  _76
REMARK   26  A    between atoms: _76  and  _77
REMARK   27  A    between atoms: _76  and  _79
REMARK   28  A    between atoms: _79  and  _80
REMARK   29  A    between atoms: _83  and  _85
REMARK   30  A    between atoms: _85  and  _86
REMARK   31  A    between atoms: _85  and  _88
REMARK   32  A    between atoms: _88  and  _89
REMARK   33  A    between atoms: _89  and  _90
REMARK   34  A    between atoms: _95  and  _97
REMARK   35  A    between atoms: _97  and  _98
REMARK   36  A    between atoms: _97  and  _100
REMARK   37  A    between atoms: _100  and  _101
REMARK   38  A    between atoms: _107  and  _109
REMARK   39  A    between atoms: _120  and  _123
REMARK   40  A    between atoms: _123  and  _124
REMARK   41  A    between atoms: _132  and  _133
REMARK   42  A    between atoms: _141  and  _143
REMARK   43  A    between atoms: _143  and  _144
REMARK   44  A    between atoms: _143  and  _146
REMARK   45  A    between atoms: _146  and  _147
REMARK   46  A    between atoms: _147  and  _148
REMARK   47  A    between atoms: _151  and  _153
REMARK   48  A    between atoms: _153  and  _154
REMARK   49  A    between atoms: _153  and  _156
REMARK   50  A    between atoms: _156  and  _157
REMARK   51  A    between atoms: _162  and  _164
REMARK   52  A    between atoms: _164  and  _165
REMARK   53  A    between atoms: _164  and  _167
REMARK   54  A    between atoms: _167  and  _168
REMARK   55  A    between atoms: _168  and  _169
REMARK   56  A    between atoms: _172  and  _174
REMARK   57  A    between atoms: _174  and  _175
REMARK   58  A    between atoms: _174  and  _177
REMARK   59  A    between atoms: _177  and  _178
REMARK   60  A    between atoms: _181  and  _183
REMARK   61  A    between atoms: _183  and  _184
REMARK   62  A    between atoms: _183  and  _186
REMARK   63  A    between atoms: _186  and  _187
REMARK   64  A    between atoms: _188  and  ZN_420
REMARK   65  A    between atoms: _192  and  _194
REMARK   66  A    between atoms: _194  and  _195
REMARK   67  A    between atoms: _194  and  _197
REMARK   68  A    between atoms: _197  and  _198
REMARK   69  A    between atoms: _201  and  _203
REMARK   70  A    between atoms: _203  and  _204
REMARK   71  A    between atoms: _203  and  _206
REMARK   72  A    between atoms: _209  and  _211
REMARK   73  A    between atoms: _211  and  _212
REMARK   74  A    between atoms: _211  and  _214
REMARK   75  A    between atoms: _214  and  _215
REMARK   76  A    between atoms: _220  and  _222
REMARK   77  A    between atoms: _222  and  _223
REMARK   78  A    between atoms: _222  and  _225
REMARK   79  A    between atoms: _225  and  _226
REMARK   80  A    between atoms: _232  and  _234
REMARK   81  A    between atoms: _234  and  _235
REMARK   82  A    between atoms: _237  and  _239
REMARK   83  A    between atoms: _239  and  _240
REMARK   84  A    between atoms: _239  and  _242
REMARK   85  A    between atoms: _245  and  _247
REMARK   86  A    between atoms: _247  and  _248
REMARK   87  A    between atoms: _247  and  _250
REMARK   88  A    between atoms: _250  and  _251
REMARK   89  A    between atoms: _251  and  _252
REMARK   90  A    between atoms: _257  and  _259
REMARK   91  A    between atoms: _259  and  _260
REMARK   92  A    between atoms: _259  and  _262
REMARK   93  A    between atoms: _262  and  _263
REMARK   94  A    between atoms: _266  and  _268
REMARK   95  A    between atoms: _268  and  _269
REMARK   96  A    between atoms: _272  and  _274
REMARK   97  A    between atoms: _274  and  _275
REMARK   98  A    between atoms: _274  and  _277
REMARK   99  A    between atoms: _280  and  _282
REMARK  100  A    between atoms: _282  and  _283
REMARK  101  A    between atoms: _282  and  _285
REMARK  102  A    between atoms: _285  and  _286
REMARK  103  A    between atoms: _289  and  _291
REMARK  104  A    between atoms: _291  and  _292
REMARK  105  A    between atoms: _294  and  _296
REMARK  106  A    between atoms: _296  and  _297
REMARK  107  A    between atoms: _296  and  _299
REMARK  108  A    between atoms: _299  and  _300
REMARK  109  A    between atoms: _302  and  _304
REMARK  110  A    between atoms: _304  and  _305
REMARK  111  A    between atoms: _304  and  _307
REMARK  112  A    between atoms: _307  and  _308
REMARK  113  A    between atoms: _311  and  _313
REMARK  114  A    between atoms: _313  and  _314
REMARK  115  A    between atoms: _313  and  _316
REMARK  116  A    between atoms: _316  and  _317
REMARK  117  A    between atoms: _320  and  _322
REMARK  118  A    between atoms: _322  and  _323
REMARK  119  A    between atoms: _322  and  _325
REMARK  120  A    between atoms: _325  and  _326
REMARK  121  A    between atoms: _330  and  _331
REMARK  122  A    between atoms: _337  and  _338
REMARK  123  A    between atoms: _343  and  _345
REMARK  124  A    between atoms: _345  and  _346
REMARK  125  A    between atoms: _345  and  _348
REMARK  126  A    between atoms: _348  and  _349
REMARK  127  A    between atoms: _352  and  _354
REMARK  128  A    between atoms: _354  and  _355
REMARK  129  A    between atoms: _354  and  _357
REMARK  130  A    between atoms: _357  and  _358
REMARK  131  A    between atoms: _361  and  _363
REMARK  132  A    between atoms: _363  and  _364
REMARK  133  A    between atoms: _363  and  _366
REMARK  134  A    between atoms: _368  and  _370
REMARK  135  A    between atoms: _370  and  _371
REMARK  136  A    between atoms: _370  and  _373
REMARK  137  A    between atoms: _376  and  _378
REMARK  138  A    between atoms: _378  and  _379
REMARK  139  A    between atoms: _378  and  _381
REMARK  140  A    between atoms: _381  and  _382
REMARK  141  A    between atoms: _392  and  _394
REMARK  142  A    between atoms: _394  and  _395
REMARK  143  A    between atoms: _394  and  _397
REMARK  144  A    between atoms: _397  and  _398
REMARK  145  A    between atoms: _403  and  _405
REMARK  146  A    between atoms: _405  and  _406
REMARK  147  A    between atoms: _405  and  _408
REMARK  148  A    between atoms: _408  and  _409
REMARK  149  A    between atoms: _409  and  _410
REMARK  150  A    between atoms: _410  and  _411
REMARK                            x       y       z     vdW  Elec       q    Type
REMARK                         _______ _______ _______ _____ _____    ______ ____
ROOT
ATOM      1  O   HOH     1      -3.919   3.425  10.140  0.00  0.00    +0.000 OA
ENDROOT
TORSDOF 0
REMARK  Name = ../refined-set-2016/3ibu/3ibu_pocket.pdb
REMARK  150 active torsions:
REMARK  status: ('A' for Active; 'I' for Inactive)
REMARK    1  A    between atoms: _1  and  _3
REMARK    2  A    between atoms: _3  and  _4
REMARK    3  A    between atoms: _3  and  _6
REMARK    4  A    between atoms: _6  and  _7
REMARK    5  A    between atoms: _17  and  _19
REMARK    6  A    between atoms: _19  and  _20
REMARK    7  A    between atoms: _19  and  _22
REMARK    8  A    between atoms: _22  and  _23
REMARK    9  A    between atoms: _28  and  _29
REMARK   10  A    between atoms: _31  and  _33
REMARK   11  A    between atoms: _33  and  _34
REMARK   12  A    between atoms: _33  and  _36
REMARK   13  A    between atoms: _36  and  _37
REMARK   14  A    between atoms: _40  and  _41
REMARK   15  A    between atoms: _46  and  _48
REMARK   16  A    between atoms: _48  and  _49
REMARK   17  A    between atoms: _48  and  _51
REMARK   18  A    between atoms: _51  and  _52
REMARK   19  A    between atoms: _57  and  _59
REMARK   20  A    between atoms: _59  and  _60
REMARK   21  A    between atoms: _63  and  _65
REMARK   22  A    between atoms: _65  and  _66
REMARK   23  A    between atoms: _65  and  _68
REMARK   24  A    between atoms: _68  and  _69
REMARK   25  A    between atoms: _74  and  _76
REMARK   26  A    between atoms: _76  and  _77
REMARK   27  A    between atoms: _76  and  _79
REMARK   28  A    between atoms: _79  and  _80
REMARK   29  A    between atoms: _83  and  _85
REMARK   30  A    between atoms: _85  and  _86
REMARK   31  A    between atoms: _85  and  _88
REMARK   32  A    between atoms: _88  and  _89
REMARK   33  A    between atoms: _89  and  _90
REMARK   34  A    between atoms: _95  and  _97
REMARK   35  A    between atoms: _97  and  _98
REMARK   36  A    between atoms: _97  and  _100
REMARK   37  A    between atoms: _100  and  _101
REMARK   38  A    between atoms: _107  and  _109
REMARK   39  A    between atoms: _120  and  _123
REMARK   40  A    between atoms: _123  and  _124
REMARK   41  A    between atoms: _132  and  _133
REMARK   42  A    between atoms: _141  and  _143
REMARK   43  A    between atoms: _143  and  _144
REMARK   44  A    between atoms: _143  and  _146
REMARK   45  A    between atoms: _146  and  _147
REMARK   46  A    between atoms: _147  and  _148
REMARK   47  A    between atoms: _151  and  _153
REMARK   48  A    between atoms: _153  and  _154
REMARK   49  A    between atoms: _153  and  _156
REMARK   50  A    between atoms: _156  and  _157
REMARK   51  A    between atoms: _162  and  _164
REMARK   52  A    between atoms: _164  and  _165
REMARK   53  A    between atoms: _164  and  _167
REMARK   54  A    between atoms: _167  and  _168
REMARK   55  A    between atoms: _168  and  _169
REMARK   56  A    between atoms: _172  and  _174
REMARK   57  A    between atoms: _174  and  _175
REMARK   58  A    between atoms: _174  and  _177
REMARK   59  A    between atoms: _177  and  _178
REMARK   60  A    between atoms: _181  and  _183
REMARK   61  A    between atoms: _183  and  _184
REMARK   62  A    between atoms: _183  and  _186
REMARK   63  A    between atoms: _186  and  _187
REMARK   64  A    between atoms: _188  and  ZN_420
REMARK   65  A    between atoms: _192  and  _194
REMARK   66  A    between atoms: _194  and  _195
REMARK   67  A    between atoms: _194  and  _197
REMARK   68  A    between atoms: _197  and  _198
REMARK   69  A    between atoms: _201  and  _203
REMARK   70  A    between atoms: _203  and  _204
REMARK   71  A    between atoms: _203  and  _206
REMARK   72  A    between atoms: _209  and  _211
REMARK   73  A    between atoms: _211  and  _212
REMARK   74  A    between atoms: _211  and  _214
REMARK   75  A    between atoms: _214  and  _215
REMARK   76  A    between atoms: _220  and  _222
REMARK   77  A    between atoms: _222  and  _223
REMARK   78  A    between atoms: _222  and  _225
REMARK   79  A    between atoms: _225  and  _226
REMARK   80  A    between atoms: _232  and  _234
REMARK   81  A    between atoms: _234  and  _235
REMARK   82  A    between atoms: _237  and  _239
REMARK   83  A    between atoms: _239  and  _240
REMARK   84  A    between atoms: _239  and  _242
REMARK   85  A    between atoms: _245  and  _247
REMARK   86  A    between atoms: _247  and  _248
REMARK   87  A    between atoms: _247  and  _250
REMARK   88  A    between atoms: _250  and  _251
REMARK   89  A    between atoms: _251  and  _252
REMARK   90  A    between atoms: _257  and  _259
REMARK   91  A    between atoms: _259  and  _260
REMARK   92  A    between atoms: _259  and  _262
REMARK   93  A    between atoms: _262  and  _263
REMARK   94  A    between atoms: _266  and  _268
REMARK   95  A    between atoms: _268  and  _269
REMARK   96  A    between atoms: _272  and  _274
REMARK   97  A    between atoms: _274  and  _275
REMARK   98  A    between atoms: _274  and  _277
REMARK   99  A    between atoms: _280  and  _282
REMARK  100  A    between atoms: _282  and  _283
REMARK  101  A    between atoms: _282  and  _285
REMARK  102  A    between atoms: _285  and  _286
REMARK  103  A    between atoms: _289  and  _291
REMARK  104  A    between atoms: _291  and  _292
REMARK  105  A    between atoms: _294  and  _296
REMARK  106  A    between atoms: _296  and  _297
REMARK  107  A    between atoms: _296  and  _299
REMARK  108  A    between atoms: _299  and  _300
REMARK  109  A    between atoms: _302  and  _304
REMARK  110  A    between atoms: _304  and  _305
REMARK  111  A    between atoms: _304  and  _307
REMARK  112  A    between atoms: _307  and  _308
REMARK  113  A    between atoms: _311  and  _313
REMARK  114  A    between atoms: _313  and  _314
REMARK  115  A    between atoms: _313  and  _316
REMARK  116  A    between atoms: _316  and  _317
REMARK  117  A    between atoms: _320  and  _322
REMARK  118  A    between atoms: _322  and  _323
REMARK  119  A    between atoms: _322  and  _325
REMARK  120  A    between atoms: _325  and  _326
REMARK  121  A    between atoms: _330  and  _331
REMARK  122  A    between atoms: _337  and  _338
REMARK  123  A    between atoms: _343  and  _345
REMARK  124  A    between atoms: _345  and  _346
REMARK  125  A    between atoms: _345  and  _348
REMARK  126  A    between atoms: _348  and  _349
REMARK  127  A    between atoms: _352  and  _354
REMARK  128  A    between atoms: _354  and  _355
REMARK  129  A    between atoms: _354  and  _357
REMARK  130  A    between atoms: _357  and  _358
REMARK  131  A    between atoms: _361  and  _363
REMARK  132  A    between atoms: _363  and  _364
REMARK  133  A    between atoms: _363  and  _366
REMARK  134  A    between atoms: _368  and  _370
REMARK  135  A    between atoms: _370  and  _371
REMARK  136  A    between atoms: _370  and  _373
REMARK  137  A    between atoms: _376  and  _378
REMARK  138  A    between atoms: _378  and  _379
REMARK  139  A    between atoms: _378  and  _381
REMARK  140  A    between atoms: _381  and  _382
REMARK  141  A    between atoms: _392  and  _394
REMARK  142  A    between atoms: _394  and  _395
REMARK  143  A    between atoms: _394  and  _397
REMARK  144  A    between atoms: _397  and  _398
REMARK  145  A    between atoms: _403  and  _405
REMARK  146  A    between atoms: _405  and  _406
REMARK  147  A    between atoms: _405  and  _408
REMARK  148  A    between atoms: _408  and  _409
REMARK  149  A    between atoms: _409  and  _410
REMARK  150  A    between atoms: _410  and  _411
REMARK                            x       y       z     vdW  Elec       q    Type
REMARK                         _______ _______ _______ _____ _____    ______ ____
ROOT
ATOM      1  O   HOH     1      -3.360  15.449  11.529  0.00  0.00    +0.000 OA
ENDROOT
TORSDOF 0
REMARK  Name = ../refined-set-2016/3ibu/3ibu_pocket.pdb
REMARK  150 active torsions:
REMARK  status: ('A' for Active; 'I' for Inactive)
REMARK    1  A    between atoms: _1  and  _3
REMARK    2  A    between atoms: _3  and  _4
REMARK    3  A    between atoms: _3  and  _6
REMARK    4  A    between atoms: _6  and  _7
REMARK    5  A    between atoms: _17  and  _19
REMARK    6  A    between atoms: _19  and  _20
REMARK    7  A    between atoms: _19  and  _22
REMARK    8  A    between atoms: _22  and  _23
REMARK    9  A    between atoms: _28  and  _29
REMARK   10  A    between atoms: _31  and  _33
REMARK   11  A    between atoms: _33  and  _34
REMARK   12  A    between atoms: _33  and  _36
REMARK   13  A    between atoms: _36  and  _37
REMARK   14  A    between atoms: _40  and  _41
REMARK   15  A    between atoms: _46  and  _48
REMARK   16  A    between atoms: _48  and  _49
REMARK   17  A    between atoms: _48  and  _51
REMARK   18  A    between atoms: _51  and  _52
REMARK   19  A    between atoms: _57  and  _59
REMARK   20  A    between atoms: _59  and  _60
REMARK   21  A    between atoms: _63  and  _65
REMARK   22  A    between atoms: _65  and  _66
REMARK   23  A    between atoms: _65  and  _68
REMARK   24  A    between atoms: _68  and  _69
REMARK   25  A    between atoms: _74  and  _76
REMARK   26  A    between atoms: _76  and  _77
REMARK   27  A    between atoms: _76  and  _79
REMARK   28  A    between atoms: _79  and  _80
REMARK   29  A    between atoms: _83  and  _85
REMARK   30  A    between atoms: _85  and  _86
REMARK   31  A    between atoms: _85  and  _88
REMARK   32  A    between atoms: _88  and  _89
REMARK   33  A    between atoms: _89  and  _90
REMARK   34  A    between atoms: _95  and  _97
REMARK   35  A    between atoms: _97  and  _98
REMARK   36  A    between atoms: _97  and  _100
REMARK   37  A    between atoms: _100  and  _101
REMARK   38  A    between atoms: _107  and  _109
REMARK   39  A    between atoms: _120  and  _123
REMARK   40  A    between atoms: _123  and  _124
REMARK   41  A    between atoms: _132  and  _133
REMARK   42  A    between atoms: _141  and  _143
REMARK   43  A    between atoms: _143  and  _144
REMARK   44  A    between atoms: _143  and  _146
REMARK   45  A    between atoms: _146  and  _147
REMARK   46  A    between atoms: _147  and  _148
REMARK   47  A    between atoms: _151  and  _153
REMARK   48  A    between atoms: _153  and  _154
REMARK   49  A    between atoms: _153  and  _156
REMARK   50  A    between atoms: _156  and  _157
REMARK   51  A    between atoms: _162  and  _164
REMARK   52  A    between atoms: _164  and  _165
REMARK   53  A    between atoms: _164  and  _167
REMARK   54  A    between atoms: _167  and  _168
REMARK   55  A    between atoms: _168  and  _169
REMARK   56  A    between atoms: _172  and  _174
REMARK   57  A    between atoms: _174  and  _175
REMARK   58  A    between atoms: _174  and  _177
REMARK   59  A    between atoms: _177  and  _178
REMARK   60  A    between atoms: _181  and  _183
REMARK   61  A    between atoms: _183  and  _184
REMARK   62  A    between atoms: _183  and  _186
REMARK   63  A    between atoms: _186  and  _187
REMARK   64  A    between atoms: _188  and  ZN_420
REMARK   65  A    between atoms: _192  and  _194
REMARK   66  A    between atoms: _194  and  _195
REMARK   67  A    between atoms: _194  and  _197
REMARK   68  A    between atoms: _197  and  _198
REMARK   69  A    between atoms: _201  and  _203
REMARK   70  A    between atoms: _203  and  _204
REMARK   71  A    between atoms: _203  and  _206
REMARK   72  A    between atoms: _209  and  _211
REMARK   73  A    between atoms: _211  and  _212
REMARK   74  A    between atoms: _211  and  _214
REMARK   75  A    between atoms: _214  and  _215
REMARK   76  A    between atoms: _220  and  _222
REMARK   77  A    between atoms: _222  and  _223
REMARK   78  A    between atoms: _222  and  _225
REMARK   79  A    between atoms: _225  and  _226
REMARK   80  A    between atoms: _232  and  _234
REMARK   81  A    between atoms: _234  and  _235
REMARK   82  A    between atoms: _237  and  _239
REMARK   83  A    between atoms: _239  and  _240
REMARK   84  A    between atoms: _239  and  _242
REMARK   85  A    between atoms: _245  and  _247
REMARK   86  A    between atoms: _247  and  _248
REMARK   87  A    between atoms: _247  and  _250
REMARK   88  A    between atoms: _250  and  _251
REMARK   89  A    between atoms: _251  and  _252
REMARK   90  A    between atoms: _257  and  _259
REMARK   91  A    between atoms: _259  and  _260
REMARK   92  A    between atoms: _259  and  _262
REMARK   93  A    between atoms: _262  and  _263
REMARK   94  A    between atoms: _266  and  _268
REMARK   95  A    between atoms: _268  and  _269
REMARK   96  A    between atoms: _272  and  _274
REMARK   97  A    between atoms: _274  and  _275
REMARK   98  A    between atoms: _274  and  _277
REMARK   99  A    between atoms: _280  and  _282
REMARK  100  A    between atoms: _282  and  _283
REMARK  101  A    between atoms: _282  and  _285
REMARK  102  A    between atoms: _285  and  _286
REMARK  103  A    between atoms: _289  and  _291
REMARK  104  A    between atoms: _291  and  _292
REMARK  105  A    between atoms: _294  and  _296
REMARK  106  A    between atoms: _296  and  _297
REMARK  107  A    between atoms: _296  and  _299
REMARK  108  A    between atoms: _299  and  _300
REMARK  109  A    between atoms: _302  and  _304
REMARK  110  A    between atoms: _304  and  _305
REMARK  111  A    between atoms: _304  and  _307
REMARK  112  A    between atoms: _307  and  _308
REMARK  113  A    between atoms: _311  and  _313
REMARK  114  A    between atoms: _313  and  _314
REMARK  115  A    between atoms: _313  and  _316
REMARK  116  A    between atoms: _316  and  _317
REMARK  117  A    between atoms: _320  and  _322
REMARK  118  A    between atoms: _322  and  _323
REMARK  119  A    between atoms: _322  and  _325
REMARK  120  A    between atoms: _325  and  _326
REMARK  121  A    between atoms: _330  and  _331
REMARK  122  A    between atoms: _337  and  _338
REMARK  123  A    between atoms: _343  and  _345
REMARK  124  A    between atoms: _345  and  _346
REMARK  125  A    between atoms: _345  and  _348
REMARK  126  A    between atoms: _348  and  _349
REMARK  127  A    between atoms: _352  and  _354
REMARK  128  A    between atoms: _354  and  _355
REMARK  129  A    between atoms: _354  and  _357
REMARK  130  A    between atoms: _357  and  _358
REMARK  131  A    between atoms: _361  and  _363
REMARK  132  A    between atoms: _363  and  _364
REMARK  133  A    between atoms: _363  and  _366
REMARK  134  A    between atoms: _368  and  _370
REMARK  135  A    between atoms: _370  and  _371
REMARK  136  A    between atoms: _370  and  _373
REMARK  137  A    between atoms: _376  and  _378
REMARK  138  A    between atoms: _378  and  _379
REMARK  139  A    between atoms: _378  and  _381
REMARK  140  A    between atoms: _381  and  _382
REMARK  141  A    between atoms: _392  and  _394
REMARK  142  A    between atoms: _394  and  _395
REMARK  143  A    between atoms: _394  and  _397
REMARK  144  A    between atoms: _397  and  _398
REMARK  145  A    between atoms: _403  and  _405
REMARK  146  A    between atoms: _405  and  _406
REMARK  147  A    between atoms: _405  and  _408
REMARK  148  A    between atoms: _408  and  _409
REMARK  149  A    between atoms: _409  and  _410
REMARK  150  A    between atoms: _410  and  _411
REMARK                            x       y       z     vdW  Elec       q    Type
REMARK                         _______ _______ _______ _____ _____    ______ ____
ROOT
ATOM      1  O   HOH     1      -3.151   4.500   7.164  0.00  0.00    +0.000 OA
ENDROOT
TORSDOF 0
REMARK  Name = ../refined-set-2016/3ibu/3ibu_pocket.pdb
REMARK  150 active torsions:
REMARK  status: ('A' for Active; 'I' for Inactive)
REMARK    1  A    between atoms: _1  and  _3
REMARK    2  A    between atoms: _3  and  _4
REMARK    3  A    between atoms: _3  and  _6
REMARK    4  A    between atoms: _6  and  _7
REMARK    5  A    between atoms: _17  and  _19
REMARK    6  A    between atoms: _19  and  _20
REMARK    7  A    between atoms: _19  and  _22
REMARK    8  A    between atoms: _22  and  _23
REMARK    9  A    between atoms: _28  and  _29
REMARK   10  A    between atoms: _31  and  _33
REMARK   11  A    between atoms: _33  and  _34
REMARK   12  A    between atoms: _33  and  _36
REMARK   13  A    between atoms: _36  and  _37
REMARK   14  A    between atoms: _40  and  _41
REMARK   15  A    between atoms: _46  and  _48
REMARK   16  A    between atoms: _48  and  _49
REMARK   17  A    between atoms: _48  and  _51
REMARK   18  A    between atoms: _51  and  _52
REMARK   19  A    between atoms: _57  and  _59
REMARK   20  A    between atoms: _59  and  _60
REMARK   21  A    between atoms: _63  and  _65
REMARK   22  A    between atoms: _65  and  _66
REMARK   23  A    between atoms: _65  and  _68
REMARK   24  A    between atoms: _68  and  _69
REMARK   25  A    between atoms: _74  and  _76
REMARK   26  A    between atoms: _76  and  _77
REMARK   27  A    between atoms: _76  and  _79
REMARK   28  A    between atoms: _79  and  _80
REMARK   29  A    between atoms: _83  and  _85
REMARK   30  A    between atoms: _85  and  _86
REMARK   31  A    between atoms: _85  and  _88
REMARK   32  A    between atoms: _88  and  _89
REMARK   33  A    between atoms: _89  and  _90
REMARK   34  A    between atoms: _95  and  _97
REMARK   35  A    between atoms: _97  and  _98
REMARK   36  A    between atoms: _97  and  _100
REMARK   37  A    between atoms: _100  and  _101
REMARK   38  A    between atoms: _107  and  _109
REMARK   39  A    between atoms: _120  and  _123
REMARK   40  A    between atoms: _123  and  _124
REMARK   41  A    between atoms: _132  and  _133
REMARK   42  A    between atoms: _141  and  _143
REMARK   43  A    between atoms: _143  and  _144
REMARK   44  A    between atoms: _143  and  _146
REMARK   45  A    between atoms: _146  and  _147
REMARK   46  A    between atoms: _147  and  _148
REMARK   47  A    between atoms: _151  and  _153
REMARK   48  A    between atoms: _153  and  _154
REMARK   49  A    between atoms: _153  and  _156
REMARK   50  A    between atoms: _156  and  _157
REMARK   51  A    between atoms: _162  and  _164
REMARK   52  A    between atoms: _164  and  _165
REMARK   53  A    between atoms: _164  and  _167
REMARK   54  A    between atoms: _167  and  _168
REMARK   55  A    between atoms: _168  and  _169
REMARK   56  A    between atoms: _172  and  _174
REMARK   57  A    between atoms: _174  and  _175
REMARK   58  A    between atoms: _174  and  _177
REMARK   59  A    between atoms: _177  and  _178
REMARK   60  A    between atoms: _181  and  _183
REMARK   61  A    between atoms: _183  and  _184
REMARK   62  A    between atoms: _183  and  _186
REMARK   63  A    between atoms: _186  and  _187
REMARK   64  A    between atoms: _188  and  ZN_420
REMARK   65  A    between atoms: _192  and  _194
REMARK   66  A    between atoms: _194  and  _195
REMARK   67  A    between atoms: _194  and  _197
REMARK   68  A    between atoms: _197  and  _198
REMARK   69  A    between atoms: _201  and  _203
REMARK   70  A    between atoms: _203  and  _204
REMARK   71  A    between atoms: _203  and  _206
REMARK   72  A    between atoms: _209  and  _211
REMARK   73  A    between atoms: _211  and  _212
REMARK   74  A    between atoms: _211  and  _214
REMARK   75  A    between atoms: _214  and  _215
REMARK   76  A    between atoms: _220  and  _222
REMARK   77  A    between atoms: _222  and  _223
REMARK   78  A    between atoms: _222  and  _225
REMARK   79  A    between atoms: _225  and  _226
REMARK   80  A    between atoms: _232  and  _234
REMARK   81  A    between atoms: _234  and  _235
REMARK   82  A    between atoms: _237  and  _239
REMARK   83  A    between atoms: _239  and  _240
REMARK   84  A    between atoms: _239  and  _242
REMARK   85  A    between atoms: _245  and  _247
REMARK   86  A    between atoms: _247  and  _248
REMARK   87  A    between atoms: _247  and  _250
REMARK   88  A    between atoms: _250  and  _251
REMARK   89  A    between atoms: _251  and  _252
REMARK   90  A    between atoms: _257  and  _259
REMARK   91  A    between atoms: _259  and  _260
REMARK   92  A    between atoms: _259  and  _262
REMARK   93  A    between atoms: _262  and  _263
REMARK   94  A    between atoms: _266  and  _268
REMARK   95  A    between atoms: _268  and  _269
REMARK   96  A    between atoms: _272  and  _274
REMARK   97  A    between atoms: _274  and  _275
REMARK   98  A    between atoms: _274  and  _277
REMARK   99  A    between atoms: _280  and  _282
REMARK  100  A    between atoms: _282  and  _283
REMARK  101  A    between atoms: _282  and  _285
REMARK  102  A    between atoms: _285  and  _286
REMARK  103  A    between atoms: _289  and  _291
REMARK  104  A    between atoms: _291  and  _292
REMARK  105  A    between atoms: _294  and  _296
REMARK  106  A    between atoms: _296  and  _297
REMARK  107  A    between atoms: _296  and  _299
REMARK  108  A    between atoms: _299  and  _300
REMARK  109  A    between atoms: _302  and  _304
REMARK  110  A    between atoms: _304  and  _305
REMARK  111  A    between atoms: _304  and  _307
REMARK  112  A    between atoms: _307  and  _308
REMARK  113  A    between atoms: _311  and  _313
REMARK  114  A    between atoms: _313  and  _314
REMARK  115  A    between atoms: _313  and  _316
REMARK  116  A    between atoms: _316  and  _317
REMARK  117  A    between atoms: _320  and  _322
REMARK  118  A    between atoms: _322  and  _323
REMARK  119  A    between atoms: _322  and  _325
REMARK  120  A    between atoms: _325  and  _326
REMARK  121  A    between atoms: _330  and  _331
REMARK  122  A    between atoms: _337  and  _338
REMARK  123  A    between atoms: _343  and  _345
REMARK  124  A    between atoms: _345  and  _346
REMARK  125  A    between atoms: _345  and  _348
REMARK  126  A    between atoms: _348  and  _349
REMARK  127  A    between atoms: _352  and  _354
REMARK  128  A    between atoms: _354  and  _355
REMARK  129  A    between atoms: _354  and  _357
REMARK  130  A    between atoms: _357  and  _358
REMARK  131  A    between atoms: _361  and  _363
REMARK  132  A    between atoms: _363  and  _364
REMARK  133  A    between atoms: _363  and  _366
REMARK  134  A    between atoms: _368  and  _370
REMARK  135  A    between atoms: _370  and  _371
REMARK  136  A    between atoms: _370  and  _373
REMARK  137  A    between atoms: _376  and  _378
REMARK  138  A    between atoms: _378  and  _379
REMARK  139  A    between atoms: _378  and  _381
REMARK  140  A    between atoms: _381  and  _382
REMARK  141  A    between atoms: _392  and  _394
REMARK  142  A    between atoms: _394  and  _395
REMARK  143  A    between atoms: _394  and  _397
REMARK  144  A    between atoms: _397  and  _398
REMARK  145  A    between atoms: _403  and  _405
REMARK  146  A    between atoms: _405  and  _406
REMARK  147  A    between atoms: _405  and  _408
REMARK  148  A    between atoms: _408  and  _409
REMARK  149  A    between atoms: _409  and  _410
REMARK  150  A    between atoms: _410  and  _411
REMARK                            x       y       z     vdW  Elec       q    Type
REMARK                         _______ _______ _______ _____ _____    ______ ____
ROOT
ATOM      1  O   HOH     1      -1.237  -3.995  15.724  0.00  0.00    +0.000 OA
ENDROOT
TORSDOF 0
REMARK  Name = ../refined-set-2016/3ibu/3ibu_pocket.pdb
REMARK  150 active torsions:
REMARK  status: ('A' for Active; 'I' for Inactive)
REMARK    1  A    between atoms: _1  and  _3
REMARK    2  A    between atoms: _3  and  _4
REMARK    3  A    between atoms: _3  and  _6
REMARK    4  A    between atoms: _6  and  _7
REMARK    5  A    between atoms: _17  and  _19
REMARK    6  A    between atoms: _19  and  _20
REMARK    7  A    between atoms: _19  and  _22
REMARK    8  A    between atoms: _22  and  _23
REMARK    9  A    between atoms: _28  and  _29
REMARK   10  A    between atoms: _31  and  _33
REMARK   11  A    between atoms: _33  and  _34
REMARK   12  A    between atoms: _33  and  _36
REMARK   13  A    between atoms: _36  and  _37
REMARK   14  A    between atoms: _40  and  _41
REMARK   15  A    between atoms: _46  and  _48
REMARK   16  A    between atoms: _48  and  _49
REMARK   17  A    between atoms: _48  and  _51
REMARK   18  A    between atoms: _51  and  _52
REMARK   19  A    between atoms: _57  and  _59
REMARK   20  A    between atoms: _59  and  _60
REMARK   21  A    between atoms: _63  and  _65
REMARK   22  A    between atoms: _65  and  _66
REMARK   23  A    between atoms: _65  and  _68
REMARK   24  A    between atoms: _68  and  _69
REMARK   25  A    between atoms: _74  and  _76
REMARK   26  A    between atoms: _76  and  _77
REMARK   27  A    between atoms: _76  and  _79
REMARK   28  A    between atoms: _79  and  _80
REMARK   29  A    between atoms: _83  and  _85
REMARK   30  A    between atoms: _85  and  _86
REMARK   31  A    between atoms: _85  and  _88
REMARK   32  A    between atoms: _88  and  _89
REMARK   33  A    between atoms: _89  and  _90
REMARK   34  A    between atoms: _95  and  _97
REMARK   35  A    between atoms: _97  and  _98
REMARK   36  A    between atoms: _97  and  _100
REMARK   37  A    between atoms: _100  and  _101
REMARK   38  A    between atoms: _107  and  _109
REMARK   39  A    between atoms: _120  and  _123
REMARK   40  A    between atoms: _123  and  _124
REMARK   41  A    between atoms: _132  and  _133
REMARK   42  A    between atoms: _141  and  _143
REMARK   43  A    between atoms: _143  and  _144
REMARK   44  A    between atoms: _143  and  _146
REMARK   45  A    between atoms: _146  and  _147
REMARK   46  A    between atoms: _147  and  _148
REMARK   47  A    between atoms: _151  and  _153
REMARK   48  A    between atoms: _153  and  _154
REMARK   49  A    between atoms: _153  and  _156
REMARK   50  A    between atoms: _156  and  _157
REMARK   51  A    between atoms: _162  and  _164
REMARK   52  A    between atoms: _164  and  _165
REMARK   53  A    between atoms: _164  and  _167
REMARK   54  A    between atoms: _167  and  _168
REMARK   55  A    between atoms: _168  and  _169
REMARK   56  A    between atoms: _172  and  _174
REMARK   57  A    between atoms: _174  and  _175
REMARK   58  A    between atoms: _174  and  _177
REMARK   59  A    between atoms: _177  and  _178
REMARK   60  A    between atoms: _181  and  _183
REMARK   61  A    between atoms: _183  and  _184
REMARK   62  A    between atoms: _183  and  _186
REMARK   63  A    between atoms: _186  and  _187
REMARK   64  A    between atoms: _188  and  ZN_420
REMARK   65  A    between atoms: _192  and  _194
REMARK   66  A    between atoms: _194  and  _195
REMARK   67  A    between atoms: _194  and  _197
REMARK   68  A    between atoms: _197  and  _198
REMARK   69  A    between atoms: _201  and  _203
REMARK   70  A    between atoms: _203  and  _204
REMARK   71  A    between atoms: _203  and  _206
REMARK   72  A    between atoms: _209  and  _211
REMARK   73  A    between atoms: _211  and  _212
REMARK   74  A    between atoms: _211  and  _214
REMARK   75  A    between atoms: _214  and  _215
REMARK   76  A    between atoms: _220  and  _222
REMARK   77  A    between atoms: _222  and  _223
REMARK   78  A    between atoms: _222  and  _225
REMARK   79  A    between atoms: _225  and  _226
REMARK   80  A    between atoms: _232  and  _234
REMARK   81  A    between atoms: _234  and  _235
REMARK   82  A    between atoms: _237  and  _239
REMARK   83  A    between atoms: _239  and  _240
REMARK   84  A    between atoms: _239  and  _242
REMARK   85  A    between atoms: _245  and  _247
REMARK   86  A    between atoms: _247  and  _248
REMARK   87  A    between atoms: _247  and  _250
REMARK   88  A    between atoms: _250  and  _251
REMARK   89  A    between atoms: _251  and  _252
REMARK   90  A    between atoms: _257  and  _259
REMARK   91  A    between atoms: _259  and  _260
REMARK   92  A    between atoms: _259  and  _262
REMARK   93  A    between atoms: _262  and  _263
REMARK   94  A    between atoms: _266  and  _268
REMARK   95  A    between atoms: _268  and  _269
REMARK   96  A    between atoms: _272  and  _274
REMARK   97  A    between atoms: _274  and  _275
REMARK   98  A    between atoms: _274  and  _277
REMARK   99  A    between atoms: _280  and  _282
REMARK  100  A    between atoms: _282  and  _283
REMARK  101  A    between atoms: _282  and  _285
REMARK  102  A    between atoms: _285  and  _286
REMARK  103  A    between atoms: _289  and  _291
REMARK  104  A    between atoms: _291  and  _292
REMARK  105  A    between atoms: _294  and  _296
REMARK  106  A    between atoms: _296  and  _297
REMARK  107  A    between atoms: _296  and  _299
REMARK  108  A    between atoms: _299  and  _300
REMARK  109  A    between atoms: _302  and  _304
REMARK  110  A    between atoms: _304  and  _305
REMARK  111  A    between atoms: _304  and  _307
REMARK  112  A    between atoms: _307  and  _308
REMARK  113  A    between atoms: _311  and  _313
REMARK  114  A    between atoms: _313  and  _314
REMARK  115  A    between atoms: _313  and  _316
REMARK  116  A    between atoms: _316  and  _317
REMARK  117  A    between atoms: _320  and  _322
REMARK  118  A    between atoms: _322  and  _323
REMARK  119  A    between atoms: _322  and  _325
REMARK  120  A    between atoms: _325  and  _326
REMARK  121  A    between atoms: _330  and  _331
REMARK  122  A    between atoms: _337  and  _338
REMARK  123  A    between atoms: _343  and  _345
REMARK  124  A    between atoms: _345  and  _346
REMARK  125  A    between atoms: _345  and  _348
REMARK  126  A    between atoms: _348  and  _349
REMARK  127  A    between atoms: _352  and  _354
REMARK  128  A    between atoms: _354  and  _355
REMARK  129  A    between atoms: _354  and  _357
REMARK  130  A    between atoms: _357  and  _358
REMARK  131  A    between atoms: _361  and  _363
REMARK  132  A    between atoms: _363  and  _364
REMARK  133  A    between atoms: _363  and  _366
REMARK  134  A    between atoms: _368  and  _370
REMARK  135  A    between atoms: _370  and  _371
REMARK  136  A    between atoms: _370  and  _373
REMARK  137  A    between atoms: _376  and  _378
REMARK  138  A    between atoms: _378  and  _379
REMARK  139  A    between atoms: _378  and  _381
REMARK  140  A    between atoms: _381  and  _382
REMARK  141  A    between atoms: _392  and  _394
REMARK  142  A    between atoms: _394  and  _395
REMARK  143  A    between atoms: _394  and  _397
REMARK  144  A    between atoms: _397  and  _398
REMARK  145  A    between atoms: _403  and  _405
REMARK  146  A    between atoms: _405  and  _406
REMARK  147  A    between atoms: _405  and  _408
REMARK  148  A    between atoms: _408  and  _409
REMARK  149  A    between atoms: _409  and  _410
REMARK  150  A    between atoms: _410  and  _411
REMARK                            x       y       z     vdW  Elec       q    Type
REMARK                         _______ _______ _______ _____ _____    ______ ____
ROOT
ATOM      1  O   HOH     1      -2.502  -3.031  11.320  0.00  0.00    +0.000 OA
ENDROOT
TORSDOF 0
REMARK  Name = ../refined-set-2016/3ibu/3ibu_pocket.pdb
REMARK  150 active torsions:
REMARK  status: ('A' for Active; 'I' for Inactive)
REMARK    1  A    between atoms: _1  and  _3
REMARK    2  A    between atoms: _3  and  _4
REMARK    3  A    between atoms: _3  and  _6
REMARK    4  A    between atoms: _6  and  _7
REMARK    5  A    between atoms: _17  and  _19
REMARK    6  A    between atoms: _19  and  _20
REMARK    7  A    between atoms: _19  and  _22
REMARK    8  A    between atoms: _22  and  _23
REMARK    9  A    between atoms: _28  and  _29
REMARK   10  A    between atoms: _31  and  _33
REMARK   11  A    between atoms: _33  and  _34
REMARK   12  A    between atoms: _33  and  _36
REMARK   13  A    between atoms: _36  and  _37
REMARK   14  A    between atoms: _40  and  _41
REMARK   15  A    between atoms: _46  and  _48
REMARK   16  A    between atoms: _48  and  _49
REMARK   17  A    between atoms: _48  and  _51
REMARK   18  A    between atoms: _51  and  _52
REMARK   19  A    between atoms: _57  and  _59
REMARK   20  A    between atoms: _59  and  _60
REMARK   21  A    between atoms: _63  and  _65
REMARK   22  A    between atoms: _65  and  _66
REMARK   23  A    between atoms: _65  and  _68
REMARK   24  A    between atoms: _68  and  _69
REMARK   25  A    between atoms: _74  and  _76
REMARK   26  A    between atoms: _76  and  _77
REMARK   27  A    between atoms: _76  and  _79
REMARK   28  A    between atoms: _79  and  _80
REMARK   29  A    between atoms: _83  and  _85
REMARK   30  A    between atoms: _85  and  _86
REMARK   31  A    between atoms: _85  and  _88
REMARK   32  A    between atoms: _88  and  _89
REMARK   33  A    between atoms: _89  and  _90
REMARK   34  A    between atoms: _95  and  _97
REMARK   35  A    between atoms: _97  and  _98
REMARK   36  A    between atoms: _97  and  _100
REMARK   37  A    between atoms: _100  and  _101
REMARK   38  A    between atoms: _107  and  _109
REMARK   39  A    between atoms: _120  and  _123
REMARK   40  A    between atoms: _123  and  _124
REMARK   41  A    between atoms: _132  and  _133
REMARK   42  A    between atoms: _141  and  _143
REMARK   43  A    between atoms: _143  and  _144
REMARK   44  A    between atoms: _143  and  _146
REMARK   45  A    between atoms: _146  and  _147
REMARK   46  A    between atoms: _147  and  _148
REMARK   47  A    between atoms: _151  and  _153
REMARK   48  A    between atoms: _153  and  _154
REMARK   49  A    between atoms: _153  and  _156
REMARK   50  A    between atoms: _156  and  _157
REMARK   51  A    between atoms: _162  and  _164
REMARK   52  A    between atoms: _164  and  _165
REMARK   53  A    between atoms: _164  and  _167
REMARK   54  A    between atoms: _167  and  _168
REMARK   55  A    between atoms: _168  and  _169
REMARK   56  A    between atoms: _172  and  _174
REMARK   57  A    between atoms: _174  and  _175
REMARK   58  A    between atoms: _174  and  _177
REMARK   59  A    between atoms: _177  and  _178
REMARK   60  A    between atoms: _181  and  _183
REMARK   61  A    between atoms: _183  and  _184
REMARK   62  A    between atoms: _183  and  _186
REMARK   63  A    between atoms: _186  and  _187
REMARK   64  A    between atoms: _188  and  ZN_420
REMARK   65  A    between atoms: _192  and  _194
REMARK   66  A    between atoms: _194  and  _195
REMARK   67  A    between atoms: _194  and  _197
REMARK   68  A    between atoms: _197  and  _198
REMARK   69  A    between atoms: _201  and  _203
REMARK   70  A    between atoms: _203  and  _204
REMARK   71  A    between atoms: _203  and  _206
REMARK   72  A    between atoms: _209  and  _211
REMARK   73  A    between atoms: _211  and  _212
REMARK   74  A    between atoms: _211  and  _214
REMARK   75  A    between atoms: _214  and  _215
REMARK   76  A    between atoms: _220  and  _222
REMARK   77  A    between atoms: _222  and  _223
REMARK   78  A    between atoms: _222  and  _225
REMARK   79  A    between atoms: _225  and  _226
REMARK   80  A    between atoms: _232  and  _234
REMARK   81  A    between atoms: _234  and  _235
REMARK   82  A    between atoms: _237  and  _239
REMARK   83  A    between atoms: _239  and  _240
REMARK   84  A    between atoms: _239  and  _242
REMARK   85  A    between atoms: _245  and  _247
REMARK   86  A    between atoms: _247  and  _248
REMARK   87  A    between atoms: _247  and  _250
REMARK   88  A    between atoms: _250  and  _251
REMARK   89  A    between atoms: _251  and  _252
REMARK   90  A    between atoms: _257  and  _259
REMARK   91  A    between atoms: _259  and  _260
REMARK   92  A    between atoms: _259  and  _262
REMARK   93  A    between atoms: _262  and  _263
REMARK   94  A    between atoms: _266  and  _268
REMARK   95  A    between atoms: _268  and  _269
REMARK   96  A    between atoms: _272  and  _274
REMARK   97  A    between atoms: _274  and  _275
REMARK   98  A    between atoms: _274  and  _277
REMARK   99  A    between atoms: _280  and  _282
REMARK  100  A    between atoms: _282  and  _283
REMARK  101  A    between atoms: _282  and  _285
REMARK  102  A    between atoms: _285  and  _286
REMARK  103  A    between atoms: _289  and  _291
REMARK  104  A    between atoms: _291  and  _292
REMARK  105  A    between atoms: _294  and  _296
REMARK  106  A    between atoms: _296  and  _297
REMARK  107  A    between atoms: _296  and  _299
REMARK  108  A    between atoms: _299  and  _300
REMARK  109  A    between atoms: _302  and  _304
REMARK  110  A    between atoms: _304  and  _305
REMARK  111  A    between atoms: _304  and  _307
REMARK  112  A    between atoms: _307  and  _308
REMARK  113  A    between atoms: _311  and  _313
REMARK  114  A    between atoms: _313  and  _314
REMARK  115  A    between atoms: _313  and  _316
REMARK  116  A    between atoms: _316  and  _317
REMARK  117  A    between atoms: _320  and  _322
REMARK  118  A    between atoms: _322  and  _323
REMARK  119  A    between atoms: _322  and  _325
REMARK  120  A    between atoms: _325  and  _326
REMARK  121  A    between atoms: _330  and  _331
REMARK  122  A    between atoms: _337  and  _338
REMARK  123  A    between atoms: _343  and  _345
REMARK  124  A    between atoms: _345  and  _346
REMARK  125  A    between atoms: _345  and  _348
REMARK  126  A    between atoms: _348  and  _349
REMARK  127  A    between atoms: _352  and  _354
REMARK  128  A    between atoms: _354  and  _355
REMARK  129  A    between atoms: _354  and  _357
REMARK  130  A    between atoms: _357  and  _358
REMARK  131  A    between atoms: _361  and  _363
REMARK  132  A    between atoms: _363  and  _364
REMARK  133  A    between atoms: _363  and  _366
REMARK  134  A    between atoms: _368  and  _370
REMARK  135  A    between atoms: _370  and  _371
REMARK  136  A    between atoms: _370  and  _373
REMARK  137  A    between atoms: _376  and  _378
REMARK  138  A    between atoms: _378  and  _379
REMARK  139  A    between atoms: _378  and  _381
REMARK  140  A    between atoms: _381  and  _382
REMARK  141  A    between atoms: _392  and  _394
REMARK  142  A    between atoms: _394  and  _395
REMARK  143  A    between atoms: _394  and  _397
REMARK  144  A    between atoms: _397  and  _398
REMARK  145  A    between atoms: _403  and  _405
REMARK  146  A    between atoms: _405  and  _406
REMARK  147  A    between atoms: _405  and  _408
REMARK  148  A    between atoms: _408  and  _409
REMARK  149  A    between atoms: _409  and  _410
REMARK  150  A    between atoms: _410  and  _411
REMARK                            x       y       z     vdW  Elec       q    Type
REMARK                         _______ _______ _______ _____ _____    ______ ____
ROOT
ATOM      1  O   HOH     1       5.180   7.194  20.201  0.00  0.00    +0.000 OA
ENDROOT
TORSDOF 0
REMARK  Name = ../refined-set-2016/3ibu/3ibu_pocket.pdb
REMARK  150 active torsions:
REMARK  status: ('A' for Active; 'I' for Inactive)
REMARK    1  A    between atoms: _1  and  _3
REMARK    2  A    between atoms: _3  and  _4
REMARK    3  A    between atoms: _3  and  _6
REMARK    4  A    between atoms: _6  and  _7
REMARK    5  A    between atoms: _17  and  _19
REMARK    6  A    between atoms: _19  and  _20
REMARK    7  A    between atoms: _19  and  _22
REMARK    8  A    between atoms: _22  and  _23
REMARK    9  A    between atoms: _28  and  _29
REMARK   10  A    between atoms: _31  and  _33
REMARK   11  A    between atoms: _33  and  _34
REMARK   12  A    between atoms: _33  and  _36
REMARK   13  A    between atoms: _36  and  _37
REMARK   14  A    between atoms: _40  and  _41
REMARK   15  A    between atoms: _46  and  _48
REMARK   16  A    between atoms: _48  and  _49
REMARK   17  A    between atoms: _48  and  _51
REMARK   18  A    between atoms: _51  and  _52
REMARK   19  A    between atoms: _57  and  _59
REMARK   20  A    between atoms: _59  and  _60
REMARK   21  A    between atoms: _63  and  _65
REMARK   22  A    between atoms: _65  and  _66
REMARK   23  A    between atoms: _65  and  _68
REMARK   24  A    between atoms: _68  and  _69
REMARK   25  A    between atoms: _74  and  _76
REMARK   26  A    between atoms: _76  and  _77
REMARK   27  A    between atoms: _76  and  _79
REMARK   28  A    between atoms: _79  and  _80
REMARK   29  A    between atoms: _83  and  _85
REMARK   30  A    between atoms: _85  and  _86
REMARK   31  A    between atoms: _85  and  _88
REMARK   32  A    between atoms: _88  and  _89
REMARK   33  A    between atoms: _89  and  _90
REMARK   34  A    between atoms: _95  and  _97
REMARK   35  A    between atoms: _97  and  _98
REMARK   36  A    between atoms: _97  and  _100
REMARK   37  A    between atoms: _100  and  _101
REMARK   38  A    between atoms: _107  and  _109
REMARK   39  A    between atoms: _120  and  _123
REMARK   40  A    between atoms: _123  and  _124
REMARK   41  A    between atoms: _132  and  _133
REMARK   42  A    between atoms: _141  and  _143
REMARK   43  A    between atoms: _143  and  _144
REMARK   44  A    between atoms: _143  and  _146
REMARK   45  A    between atoms: _146  and  _147
REMARK   46  A    between atoms: _147  and  _148
REMARK   47  A    between atoms: _151  and  _153
REMARK   48  A    between atoms: _153  and  _154
REMARK   49  A    between atoms: _153  and  _156
REMARK   50  A    between atoms: _156  and  _157
REMARK   51  A    between atoms: _162  and  _164
REMARK   52  A    between atoms: _164  and  _165
REMARK   53  A    between atoms: _164  and  _167
REMARK   54  A    between atoms: _167  and  _168
REMARK   55  A    between atoms: _168  and  _169
REMARK   56  A    between atoms: _172  and  _174
REMARK   57  A    between atoms: _174  and  _175
REMARK   58  A    between atoms: _174  and  _177
REMARK   59  A    between atoms: _177  and  _178
REMARK   60  A    between atoms: _181  and  _183
REMARK   61  A    between atoms: _183  and  _184
REMARK   62  A    between atoms: _183  and  _186
REMARK   63  A    between atoms: _186  and  _187
REMARK   64  A    between atoms: _188  and  ZN_420
REMARK   65  A    between atoms: _192  and  _194
REMARK   66  A    between atoms: _194  and  _195
REMARK   67  A    between atoms: _194  and  _197
REMARK   68  A    between atoms: _197  and  _198
REMARK   69  A    between atoms: _201  and  _203
REMARK   70  A    between atoms: _203  and  _204
REMARK   71  A    between atoms: _203  and  _206
REMARK   72  A    between atoms: _209  and  _211
REMARK   73  A    between atoms: _211  and  _212
REMARK   74  A    between atoms: _211  and  _214
REMARK   75  A    between atoms: _214  and  _215
REMARK   76  A    between atoms: _220  and  _222
REMARK   77  A    between atoms: _222  and  _223
REMARK   78  A    between atoms: _222  and  _225
REMARK   79  A    between atoms: _225  and  _226
REMARK   80  A    between atoms: _232  and  _234
REMARK   81  A    between atoms: _234  and  _235
REMARK   82  A    between atoms: _237  and  _239
REMARK   83  A    between atoms: _239  and  _240
REMARK   84  A    between atoms: _239  and  _242
REMARK   85  A    between atoms: _245  and  _247
REMARK   86  A    between atoms: _247  and  _248
REMARK   87  A    between atoms: _247  and  _250
REMARK   88  A    between atoms: _250  and  _251
REMARK   89  A    between atoms: _251  and  _252
REMARK   90  A    between atoms: _257  and  _259
REMARK   91  A    between atoms: _259  and  _260
REMARK   92  A    between atoms: _259  and  _262
REMARK   93  A    between atoms: _262  and  _263
REMARK   94  A    between atoms: _266  and  _268
REMARK   95  A    between atoms: _268  and  _269
REMARK   96  A    between atoms: _272  and  _274
REMARK   97  A    between atoms: _274  and  _275
REMARK   98  A    between atoms: _274  and  _277
REMARK   99  A    between atoms: _280  and  _282
REMARK  100  A    between atoms: _282  and  _283
REMARK  101  A    between atoms: _282  and  _285
REMARK  102  A    between atoms: _285  and  _286
REMARK  103  A    between atoms: _289  and  _291
REMARK  104  A    between atoms: _291  and  _292
REMARK  105  A    between atoms: _294  and  _296
REMARK  106  A    between atoms: _296  and  _297
REMARK  107  A    between atoms: _296  and  _299
REMARK  108  A    between atoms: _299  and  _300
REMARK  109  A    between atoms: _302  and  _304
REMARK  110  A    between atoms: _304  and  _305
REMARK  111  A    between atoms: _304  and  _307
REMARK  112  A    between atoms: _307  and  _308
REMARK  113  A    between atoms: _311  and  _313
REMARK  114  A    between atoms: _313  and  _314
REMARK  115  A    between atoms: _313  and  _316
REMARK  116  A    between atoms: _316  and  _317
REMARK  117  A    between atoms: _320  and  _322
REMARK  118  A    between atoms: _322  and  _323
REMARK  119  A    between atoms: _322  and  _325
REMARK  120  A    between atoms: _325  and  _326
REMARK  121  A    between atoms: _330  and  _331
REMARK  122  A    between atoms: _337  and  _338
REMARK  123  A    between atoms: _343  and  _345
REMARK  124  A    between atoms: _345  and  _346
REMARK  125  A    between atoms: _345  and  _348
REMARK  126  A    between atoms: _348  and  _349
REMARK  127  A    between atoms: _352  and  _354
REMARK  128  A    between atoms: _354  and  _355
REMARK  129  A    between atoms: _354  and  _357
REMARK  130  A    between atoms: _357  and  _358
REMARK  131  A    between atoms: _361  and  _363
REMARK  132  A    between atoms: _363  and  _364
REMARK  133  A    between atoms: _363  and  _366
REMARK  134  A    between atoms: _368  and  _370
REMARK  135  A    between atoms: _370  and  _371
REMARK  136  A    between atoms: _370  and  _373
REMARK  137  A    between atoms: _376  and  _378
REMARK  138  A    between atoms: _378  and  _379
REMARK  139  A    between atoms: _378  and  _381
REMARK  140  A    between atoms: _381  and  _382
REMARK  141  A    between atoms: _392  and  _394
REMARK  142  A    between atoms: _394  and  _395
REMARK  143  A    between atoms: _394  and  _397
REMARK  144  A    between atoms: _397  and  _398
REMARK  145  A    between atoms: _403  and  _405
REMARK  146  A    between atoms: _405  and  _406
REMARK  147  A    between atoms: _405  and  _408
REMARK  148  A    between atoms: _408  and  _409
REMARK  149  A    between atoms: _409  and  _410
REMARK  150  A    between atoms: _410  and  _411
REMARK                            x       y       z     vdW  Elec       q    Type
REMARK                         _______ _______ _______ _____ _____    ______ ____
ROOT
ATOM      1  O   HOH     1      -6.613   6.670  10.241  0.00  0.00    +0.000 OA
ENDROOT
TORSDOF 0
REMARK  Name = ../refined-set-2016/3ibu/3ibu_pocket.pdb
REMARK  150 active torsions:
REMARK  status: ('A' for Active; 'I' for Inactive)
REMARK    1  A    between atoms: _1  and  _3
REMARK    2  A    between atoms: _3  and  _4
REMARK    3  A    between atoms: _3  and  _6
REMARK    4  A    between atoms: _6  and  _7
REMARK    5  A    between atoms: _17  and  _19
REMARK    6  A    between atoms: _19  and  _20
REMARK    7  A    between atoms: _19  and  _22
REMARK    8  A    between atoms: _22  and  _23
REMARK    9  A    between atoms: _28  and  _29
REMARK   10  A    between atoms: _31  and  _33
REMARK   11  A    between atoms: _33  and  _34
REMARK   12  A    between atoms: _33  and  _36
REMARK   13  A    between atoms: _36  and  _37
REMARK   14  A    between atoms: _40  and  _41
REMARK   15  A    between atoms: _46  and  _48
REMARK   16  A    between atoms: _48  and  _49
REMARK   17  A    between atoms: _48  and  _51
REMARK   18  A    between atoms: _51  and  _52
REMARK   19  A    between atoms: _57  and  _59
REMARK   20  A    between atoms: _59  and  _60
REMARK   21  A    between atoms: _63  and  _65
REMARK   22  A    between atoms: _65  and  _66
REMARK   23  A    between atoms: _65  and  _68
REMARK   24  A    between atoms: _68  and  _69
REMARK   25  A    between atoms: _74  and  _76
REMARK   26  A    between atoms: _76  and  _77
REMARK   27  A    between atoms: _76  and  _79
REMARK   28  A    between atoms: _79  and  _80
REMARK   29  A    between atoms: _83  and  _85
REMARK   30  A    between atoms: _85  and  _86
REMARK   31  A    between atoms: _85  and  _88
REMARK   32  A    between atoms: _88  and  _89
REMARK   33  A    between atoms: _89  and  _90
REMARK   34  A    between atoms: _95  and  _97
REMARK   35  A    between atoms: _97  and  _98
REMARK   36  A    between atoms: _97  and  _100
REMARK   37  A    between atoms: _100  and  _101
REMARK   38  A    between atoms: _107  and  _109
REMARK   39  A    between atoms: _120  and  _123
REMARK   40  A    between atoms: _123  and  _124
REMARK   41  A    between atoms: _132  and  _133
REMARK   42  A    between atoms: _141  and  _143
REMARK   43  A    between atoms: _143  and  _144
REMARK   44  A    between atoms: _143  and  _146
REMARK   45  A    between atoms: _146  and  _147
REMARK   46  A    between atoms: _147  and  _148
REMARK   47  A    between atoms: _151  and  _153
REMARK   48  A    between atoms: _153  and  _154
REMARK   49  A    between atoms: _153  and  _156
REMARK   50  A    between atoms: _156  and  _157
REMARK   51  A    between atoms: _162  and  _164
REMARK   52  A    between atoms: _164  and  _165
REMARK   53  A    between atoms: _164  and  _167
REMARK   54  A    between atoms: _167  and  _168
REMARK   55  A    between atoms: _168  and  _169
REMARK   56  A    between atoms: _172  and  _174
REMARK   57  A    between atoms: _174  and  _175
REMARK   58  A    between atoms: _174  and  _177
REMARK   59  A    between atoms: _177  and  _178
REMARK   60  A    between atoms: _181  and  _183
REMARK   61  A    between atoms: _183  and  _184
REMARK   62  A    between atoms: _183  and  _186
REMARK   63  A    between atoms: _186  and  _187
REMARK   64  A    between atoms: _188  and  ZN_420
REMARK   65  A    between atoms: _192  and  _194
REMARK   66  A    between atoms: _194  and  _195
REMARK   67  A    between atoms: _194  and  _197
REMARK   68  A    between atoms: _197  and  _198
REMARK   69  A    between atoms: _201  and  _203
REMARK   70  A    between atoms: _203  and  _204
REMARK   71  A    between atoms: _203  and  _206
REMARK   72  A    between atoms: _209  and  _211
REMARK   73  A    between atoms: _211  and  _212
REMARK   74  A    between atoms: _211  and  _214
REMARK   75  A    between atoms: _214  and  _215
REMARK   76  A    between atoms: _220  and  _222
REMARK   77  A    between atoms: _222  and  _223
REMARK   78  A    between atoms: _222  and  _225
REMARK   79  A    between atoms: _225  and  _226
REMARK   80  A    between atoms: _232  and  _234
REMARK   81  A    between atoms: _234  and  _235
REMARK   82  A    between atoms: _237  and  _239
REMARK   83  A    between atoms: _239  and  _240
REMARK   84  A    between atoms: _239  and  _242
REMARK   85  A    between atoms: _245  and  _247
REMARK   86  A    between atoms: _247  and  _248
REMARK   87  A    between atoms: _247  and  _250
REMARK   88  A    between atoms: _250  and  _251
REMARK   89  A    between atoms: _251  and  _252
REMARK   90  A    between atoms: _257  and  _259
REMARK   91  A    between atoms: _259  and  _260
REMARK   92  A    between atoms: _259  and  _262
REMARK   93  A    between atoms: _262  and  _263
REMARK   94  A    between atoms: _266  and  _268
REMARK   95  A    between atoms: _268  and  _269
REMARK   96  A    between atoms: _272  and  _274
REMARK   97  A    between atoms: _274  and  _275
REMARK   98  A    between atoms: _274  and  _277
REMARK   99  A    between atoms: _280  and  _282
REMARK  100  A    between atoms: _282  and  _283
REMARK  101  A    between atoms: _282  and  _285
REMARK  102  A    between atoms: _285  and  _286
REMARK  103  A    between atoms: _289  and  _291
REMARK  104  A    between atoms: _291  and  _292
REMARK  105  A    between atoms: _294  and  _296
REMARK  106  A    between atoms: _296  and  _297
REMARK  107  A    between atoms: _296  and  _299
REMARK  108  A    between atoms: _299  and  _300
REMARK  109  A    between atoms: _302  and  _304
REMARK  110  A    between atoms: _304  and  _305
REMARK  111  A    between atoms: _304  and  _307
REMARK  112  A    between atoms: _307  and  _308
REMARK  113  A    between atoms: _311  and  _313
REMARK  114  A    between atoms: _313  and  _314
REMARK  115  A    between atoms: _313  and  _316
REMARK  116  A    between atoms: _316  and  _317
REMARK  117  A    between atoms: _320  and  _322
REMARK  118  A    between atoms: _322  and  _323
REMARK  119  A    between atoms: _322  and  _325
REMARK  120  A    between atoms: _325  and  _326
REMARK  121  A    between atoms: _330  and  _331
REMARK  122  A    between atoms: _337  and  _338
REMARK  123  A    between atoms: _343  and  _345
REMARK  124  A    between atoms: _345  and  _346
REMARK  125  A    between atoms: _345  and  _348
REMARK  126  A    between atoms: _348  and  _349
REMARK  127  A    between atoms: _352  and  _354
REMARK  128  A    between atoms: _354  and  _355
REMARK  129  A    between atoms: _354  and  _357
REMARK  130  A    between atoms: _357  and  _358
REMARK  131  A    between atoms: _361  and  _363
REMARK  132  A    between atoms: _363  and  _364
REMARK  133  A    between atoms: _363  and  _366
REMARK  134  A    between atoms: _368  and  _370
REMARK  135  A    between atoms: _370  and  _371
REMARK  136  A    between atoms: _370  and  _373
REMARK  137  A    between atoms: _376  and  _378
REMARK  138  A    between atoms: _378  and  _379
REMARK  139  A    between atoms: _378  and  _381
REMARK  140  A    between atoms: _381  and  _382
REMARK  141  A    between atoms: _392  and  _394
REMARK  142  A    between atoms: _394  and  _395
REMARK  143  A    between atoms: _394  and  _397
REMARK  144  A    between atoms: _397  and  _398
REMARK  145  A    between atoms: _403  and  _405
REMARK  146  A    between atoms: _405  and  _406
REMARK  147  A    between atoms: _405  and  _408
REMARK  148  A    between atoms: _408  and  _409
REMARK  149  A    between atoms: _409  and  _410
REMARK  150  A    between atoms: _410  and  _411
REMARK                            x       y       z     vdW  Elec       q    Type
REMARK                         _______ _______ _______ _____ _____    ______ ____
ROOT
ATOM      1  O   HOH     1      -0.625  14.810  16.123  0.00  0.00    +0.000 OA
ENDROOT
TORSDOF 0
REMARK  Name = ../refined-set-2016/3ibu/3ibu_pocket.pdb
REMARK  150 active torsions:
REMARK  status: ('A' for Active; 'I' for Inactive)
REMARK    1  A    between atoms: _1  and  _3
REMARK    2  A    between atoms: _3  and  _4
REMARK    3  A    between atoms: _3  and  _6
REMARK    4  A    between atoms: _6  and  _7
REMARK    5  A    between atoms: _17  and  _19
REMARK    6  A    between atoms: _19  and  _20
REMARK    7  A    between atoms: _19  and  _22
REMARK    8  A    between atoms: _22  and  _23
REMARK    9  A    between atoms: _28  and  _29
REMARK   10  A    between atoms: _31  and  _33
REMARK   11  A    between atoms: _33  and  _34
REMARK   12  A    between atoms: _33  and  _36
REMARK   13  A    between atoms: _36  and  _37
REMARK   14  A    between atoms: _40  and  _41
REMARK   15  A    between atoms: _46  and  _48
REMARK   16  A    between atoms: _48  and  _49
REMARK   17  A    between atoms: _48  and  _51
REMARK   18  A    between atoms: _51  and  _52
REMARK   19  A    between atoms: _57  and  _59
REMARK   20  A    between atoms: _59  and  _60
REMARK   21  A    between atoms: _63  and  _65
REMARK   22  A    between atoms: _65  and  _66
REMARK   23  A    between atoms: _65  and  _68
REMARK   24  A    between atoms: _68  and  _69
REMARK   25  A    between atoms: _74  and  _76
REMARK   26  A    between atoms: _76  and  _77
REMARK   27  A    between atoms: _76  and  _79
REMARK   28  A    between atoms: _79  and  _80
REMARK   29  A    between atoms: _83  and  _85
REMARK   30  A    between atoms: _85  and  _86
REMARK   31  A    between atoms: _85  and  _88
REMARK   32  A    between atoms: _88  and  _89
REMARK   33  A    between atoms: _89  and  _90
REMARK   34  A    between atoms: _95  and  _97
REMARK   35  A    between atoms: _97  and  _98
REMARK   36  A    between atoms: _97  and  _100
REMARK   37  A    between atoms: _100  and  _101
REMARK   38  A    between atoms: _107  and  _109
REMARK   39  A    between atoms: _120  and  _123
REMARK   40  A    between atoms: _123  and  _124
REMARK   41  A    between atoms: _132  and  _133
REMARK   42  A    between atoms: _141  and  _143
REMARK   43  A    between atoms: _143  and  _144
REMARK   44  A    between atoms: _143  and  _146
REMARK   45  A    between atoms: _146  and  _147
REMARK   46  A    between atoms: _147  and  _148
REMARK   47  A    between atoms: _151  and  _153
REMARK   48  A    between atoms: _153  and  _154
REMARK   49  A    between atoms: _153  and  _156
REMARK   50  A    between atoms: _156  and  _157
REMARK   51  A    between atoms: _162  and  _164
REMARK   52  A    between atoms: _164  and  _165
REMARK   53  A    between atoms: _164  and  _167
REMARK   54  A    between atoms: _167  and  _168
REMARK   55  A    between atoms: _168  and  _169
REMARK   56  A    between atoms: _172  and  _174
REMARK   57  A    between atoms: _174  and  _175
REMARK   58  A    between atoms: _174  and  _177
REMARK   59  A    between atoms: _177  and  _178
REMARK   60  A    between atoms: _181  and  _183
REMARK   61  A    between atoms: _183  and  _184
REMARK   62  A    between atoms: _183  and  _186
REMARK   63  A    between atoms: _186  and  _187
REMARK   64  A    between atoms: _188  and  ZN_420
REMARK   65  A    between atoms: _192  and  _194
REMARK   66  A    between atoms: _194  and  _195
REMARK   67  A    between atoms: _194  and  _197
REMARK   68  A    between atoms: _197  and  _198
REMARK   69  A    between atoms: _201  and  _203
REMARK   70  A    between atoms: _203  and  _204
REMARK   71  A    between atoms: _203  and  _206
REMARK   72  A    between atoms: _209  and  _211
REMARK   73  A    between atoms: _211  and  _212
REMARK   74  A    between atoms: _211  and  _214
REMARK   75  A    between atoms: _214  and  _215
REMARK   76  A    between atoms: _220  and  _222
REMARK   77  A    between atoms: _222  and  _223
REMARK   78  A    between atoms: _222  and  _225
REMARK   79  A    between atoms: _225  and  _226
REMARK   80  A    between atoms: _232  and  _234
REMARK   81  A    between atoms: _234  and  _235
REMARK   82  A    between atoms: _237  and  _239
REMARK   83  A    between atoms: _239  and  _240
REMARK   84  A    between atoms: _239  and  _242
REMARK   85  A    between atoms: _245  and  _247
REMARK   86  A    between atoms: _247  and  _248
REMARK   87  A    between atoms: _247  and  _250
REMARK   88  A    between atoms: _250  and  _251
REMARK   89  A    between atoms: _251  and  _252
REMARK   90  A    between atoms: _257  and  _259
REMARK   91  A    between atoms: _259  and  _260
REMARK   92  A    between atoms: _259  and  _262
REMARK   93  A    between atoms: _262  and  _263
REMARK   94  A    between atoms: _266  and  _268
REMARK   95  A    between atoms: _268  and  _269
REMARK   96  A    between atoms: _272  and  _274
REMARK   97  A    between atoms: _274  and  _275
REMARK   98  A    between atoms: _274  and  _277
REMARK   99  A    between atoms: _280  and  _282
REMARK  100  A    between atoms: _282  and  _283
REMARK  101  A    between atoms: _282  and  _285
REMARK  102  A    between atoms: _285  and  _286
REMARK  103  A    between atoms: _289  and  _291
REMARK  104  A    between atoms: _291  and  _292
REMARK  105  A    between atoms: _294  and  _296
REMARK  106  A    between atoms: _296  and  _297
REMARK  107  A    between atoms: _296  and  _299
REMARK  108  A    between atoms: _299  and  _300
REMARK  109  A    between atoms: _302  and  _304
REMARK  110  A    between atoms: _304  and  _305
REMARK  111  A    between atoms: _304  and  _307
REMARK  112  A    between atoms: _307  and  _308
REMARK  113  A    between atoms: _311  and  _313
REMARK  114  A    between atoms: _313  and  _314
REMARK  115  A    between atoms: _313  and  _316
REMARK  116  A    between atoms: _316  and  _317
REMARK  117  A    between atoms: _320  and  _322
REMARK  118  A    between atoms: _322  and  _323
REMARK  119  A    between atoms: _322  and  _325
REMARK  120  A    between atoms: _325  and  _326
REMARK  121  A    between atoms: _330  and  _331
REMARK  122  A    between atoms: _337  and  _338
REMARK  123  A    between atoms: _343  and  _345
REMARK  124  A    between atoms: _345  and  _346
REMARK  125  A    between atoms: _345  and  _348
REMARK  126  A    between atoms: _348  and  _349
REMARK  127  A    between atoms: _352  and  _354
REMARK  128  A    between atoms: _354  and  _355
REMARK  129  A    between atoms: _354  and  _357
REMARK  130  A    between atoms: _357  and  _358
REMARK  131  A    between atoms: _361  and  _363
REMARK  132  A    between atoms: _363  and  _364
REMARK  133  A    between atoms: _363  and  _366
REMARK  134  A    between atoms: _368  and  _370
REMARK  135  A    between atoms: _370  and  _371
REMARK  136  A    between atoms: _370  and  _373
REMARK  137  A    between atoms: _376  and  _378
REMARK  138  A    between atoms: _378  and  _379
REMARK  139  A    between atoms: _378  and  _381
REMARK  140  A    between atoms: _381  and  _382
REMARK  141  A    between atoms: _392  and  _394
REMARK  142  A    between atoms: _394  and  _395
REMARK  143  A    between atoms: _394  and  _397
REMARK  144  A    between atoms: _397  and  _398
REMARK  145  A    between atoms: _403  and  _405
REMARK  146  A    between atoms: _405  and  _406
REMARK  147  A    between atoms: _405  and  _408
REMARK  148  A    between atoms: _408  and  _409
REMARK  149  A    between atoms: _409  and  _410
REMARK  150  A    between atoms: _410  and  _411
REMARK                            x       y       z     vdW  Elec       q    Type
REMARK                         _______ _______ _______ _____ _____    ______ ____
ROOT
ATOM      1  O   HOH     1      -5.197   1.025  10.478  0.00  0.00    +0.000 OA
ENDROOT
TORSDOF 0
REMARK  Name = ../refined-set-2016/3ibu/3ibu_pocket.pdb
REMARK  150 active torsions:
REMARK  status: ('A' for Active; 'I' for Inactive)
REMARK    1  A    between atoms: _1  and  _3
REMARK    2  A    between atoms: _3  and  _4
REMARK    3  A    between atoms: _3  and  _6
REMARK    4  A    between atoms: _6  and  _7
REMARK    5  A    between atoms: _17  and  _19
REMARK    6  A    between atoms: _19  and  _20
REMARK    7  A    between atoms: _19  and  _22
REMARK    8  A    between atoms: _22  and  _23
REMARK    9  A    between atoms: _28  and  _29
REMARK   10  A    between atoms: _31  and  _33
REMARK   11  A    between atoms: _33  and  _34
REMARK   12  A    between atoms: _33  and  _36
REMARK   13  A    between atoms: _36  and  _37
REMARK   14  A    between atoms: _40  and  _41
REMARK   15  A    between atoms: _46  and  _48
REMARK   16  A    between atoms: _48  and  _49
REMARK   17  A    between atoms: _48  and  _51
REMARK   18  A    between atoms: _51  and  _52
REMARK   19  A    between atoms: _57  and  _59
REMARK   20  A    between atoms: _59  and  _60
REMARK   21  A    between atoms: _63  and  _65
REMARK   22  A    between atoms: _65  and  _66
REMARK   23  A    between atoms: _65  and  _68
REMARK   24  A    between atoms: _68  and  _69
REMARK   25  A    between atoms: _74  and  _76
REMARK   26  A    between atoms: _76  and  _77
REMARK   27  A    between atoms: _76  and  _79
REMARK   28  A    between atoms: _79  and  _80
REMARK   29  A    between atoms: _83  and  _85
REMARK   30  A    between atoms: _85  and  _86
REMARK   31  A    between atoms: _85  and  _88
REMARK   32  A    between atoms: _88  and  _89
REMARK   33  A    between atoms: _89  and  _90
REMARK   34  A    between atoms: _95  and  _97
REMARK   35  A    between atoms: _97  and  _98
REMARK   36  A    between atoms: _97  and  _100
REMARK   37  A    between atoms: _100  and  _101
REMARK   38  A    between atoms: _107  and  _109
REMARK   39  A    between atoms: _120  and  _123
REMARK   40  A    between atoms: _123  and  _124
REMARK   41  A    between atoms: _132  and  _133
REMARK   42  A    between atoms: _141  and  _143
REMARK   43  A    between atoms: _143  and  _144
REMARK   44  A    between atoms: _143  and  _146
REMARK   45  A    between atoms: _146  and  _147
REMARK   46  A    between atoms: _147  and  _148
REMARK   47  A    between atoms: _151  and  _153
REMARK   48  A    between atoms: _153  and  _154
REMARK   49  A    between atoms: _153  and  _156
REMARK   50  A    between atoms: _156  and  _157
REMARK   51  A    between atoms: _162  and  _164
REMARK   52  A    between atoms: _164  and  _165
REMARK   53  A    between atoms: _164  and  _167
REMARK   54  A    between atoms: _167  and  _168
REMARK   55  A    between atoms: _168  and  _169
REMARK   56  A    between atoms: _172  and  _174
REMARK   57  A    between atoms: _174  and  _175
REMARK   58  A    between atoms: _174  and  _177
REMARK   59  A    between atoms: _177  and  _178
REMARK   60  A    between atoms: _181  and  _183
REMARK   61  A    between atoms: _183  and  _184
REMARK   62  A    between atoms: _183  and  _186
REMARK   63  A    between atoms: _186  and  _187
REMARK   64  A    between atoms: _188  and  ZN_420
REMARK   65  A    between atoms: _192  and  _194
REMARK   66  A    between atoms: _194  and  _195
REMARK   67  A    between atoms: _194  and  _197
REMARK   68  A    between atoms: _197  and  _198
REMARK   69  A    between atoms: _201  and  _203
REMARK   70  A    between atoms: _203  and  _204
REMARK   71  A    between atoms: _203  and  _206
REMARK   72  A    between atoms: _209  and  _211
REMARK   73  A    between atoms: _211  and  _212
REMARK   74  A    between atoms: _211  and  _214
REMARK   75  A    between atoms: _214  and  _215
REMARK   76  A    between atoms: _220  and  _222
REMARK   77  A    between atoms: _222  and  _223
REMARK   78  A    between atoms: _222  and  _225
REMARK   79  A    between atoms: _225  and  _226
REMARK   80  A    between atoms: _232  and  _234
REMARK   81  A    between atoms: _234  and  _235
REMARK   82  A    between atoms: _237  and  _239
REMARK   83  A    between atoms: _239  and  _240
REMARK   84  A    between atoms: _239  and  _242
REMARK   85  A    between atoms: _245  and  _247
REMARK   86  A    between atoms: _247  and  _248
REMARK   87  A    between atoms: _247  and  _250
REMARK   88  A    between atoms: _250  and  _251
REMARK   89  A    between atoms: _251  and  _252
REMARK   90  A    between atoms: _257  and  _259
REMARK   91  A    between atoms: _259  and  _260
REMARK   92  A    between atoms: _259  and  _262
REMARK   93  A    between atoms: _262  and  _263
REMARK   94  A    between atoms: _266  and  _268
REMARK   95  A    between atoms: _268  and  _269
REMARK   96  A    between atoms: _272  and  _274
REMARK   97  A    between atoms: _274  and  _275
REMARK   98  A    between atoms: _274  and  _277
REMARK   99  A    between atoms: _280  and  _282
REMARK  100  A    between atoms: _282  and  _283
REMARK  101  A    between atoms: _282  and  _285
REMARK  102  A    between atoms: _285  and  _286
REMARK  103  A    between atoms: _289  and  _291
REMARK  104  A    between atoms: _291  and  _292
REMARK  105  A    between atoms: _294  and  _296
REMARK  106  A    between atoms: _296  and  _297
REMARK  107  A    between atoms: _296  and  _299
REMARK  108  A    between atoms: _299  and  _300
REMARK  109  A    between atoms: _302  and  _304
REMARK  110  A    between atoms: _304  and  _305
REMARK  111  A    between atoms: _304  and  _307
REMARK  112  A    between atoms: _307  and  _308
REMARK  113  A    between atoms: _311  and  _313
REMARK  114  A    between atoms: _313  and  _314
REMARK  115  A    between atoms: _313  and  _316
REMARK  116  A    between atoms: _316  and  _317
REMARK  117  A    between atoms: _320  and  _322
REMARK  118  A    between atoms: _322  and  _323
REMARK  119  A    between atoms: _322  and  _325
REMARK  120  A    between atoms: _325  and  _326
REMARK  121  A    between atoms: _330  and  _331
REMARK  122  A    between atoms: _337  and  _338
REMARK  123  A    between atoms: _343  and  _345
REMARK  124  A    between atoms: _345  and  _346
REMARK  125  A    between atoms: _345  and  _348
REMARK  126  A    between atoms: _348  and  _349
REMARK  127  A    between atoms: _352  and  _354
REMARK  128  A    between atoms: _354  and  _355
REMARK  129  A    between atoms: _354  and  _357
REMARK  130  A    between atoms: _357  and  _358
REMARK  131  A    between atoms: _361  and  _363
REMARK  132  A    between atoms: _363  and  _364
REMARK  133  A    between atoms: _363  and  _366
REMARK  134  A    between atoms: _368  and  _370
REMARK  135  A    between atoms: _370  and  _371
REMARK  136  A    between atoms: _370  and  _373
REMARK  137  A    between atoms: _376  and  _378
REMARK  138  A    between atoms: _378  and  _379
REMARK  139  A    between atoms: _378  and  _381
REMARK  140  A    between atoms: _381  and  _382
REMARK  141  A    between atoms: _392  and  _394
REMARK  142  A    between atoms: _394  and  _395
REMARK  143  A    between atoms: _394  and  _397
REMARK  144  A    between atoms: _397  and  _398
REMARK  145  A    between atoms: _403  and  _405
REMARK  146  A    between atoms: _405  and  _406
REMARK  147  A    between atoms: _405  and  _408
REMARK  148  A    between atoms: _408  and  _409
REMARK  149  A    between atoms: _409  and  _410
REMARK  150  A    between atoms: _410  and  _411
REMARK                            x       y       z     vdW  Elec       q    Type
REMARK                         _______ _______ _______ _____ _____    ______ ____
ROOT
ATOM      1  O   HOH     1       0.250  11.282  22.551  0.00  0.00    +0.000 OA
ENDROOT
TORSDOF 0
REMARK  Name = ../refined-set-2016/3ibu/3ibu_pocket.pdb
REMARK  150 active torsions:
REMARK  status: ('A' for Active; 'I' for Inactive)
REMARK    1  A    between atoms: _1  and  _3
REMARK    2  A    between atoms: _3  and  _4
REMARK    3  A    between atoms: _3  and  _6
REMARK    4  A    between atoms: _6  and  _7
REMARK    5  A    between atoms: _17  and  _19
REMARK    6  A    between atoms: _19  and  _20
REMARK    7  A    between atoms: _19  and  _22
REMARK    8  A    between atoms: _22  and  _23
REMARK    9  A    between atoms: _28  and  _29
REMARK   10  A    between atoms: _31  and  _33
REMARK   11  A    between atoms: _33  and  _34
REMARK   12  A    between atoms: _33  and  _36
REMARK   13  A    between atoms: _36  and  _37
REMARK   14  A    between atoms: _40  and  _41
REMARK   15  A    between atoms: _46  and  _48
REMARK   16  A    between atoms: _48  and  _49
REMARK   17  A    between atoms: _48  and  _51
REMARK   18  A    between atoms: _51  and  _52
REMARK   19  A    between atoms: _57  and  _59
REMARK   20  A    between atoms: _59  and  _60
REMARK   21  A    between atoms: _63  and  _65
REMARK   22  A    between atoms: _65  and  _66
REMARK   23  A    between atoms: _65  and  _68
REMARK   24  A    between atoms: _68  and  _69
REMARK   25  A    between atoms: _74  and  _76
REMARK   26  A    between atoms: _76  and  _77
REMARK   27  A    between atoms: _76  and  _79
REMARK   28  A    between atoms: _79  and  _80
REMARK   29  A    between atoms: _83  and  _85
REMARK   30  A    between atoms: _85  and  _86
REMARK   31  A    between atoms: _85  and  _88
REMARK   32  A    between atoms: _88  and  _89
REMARK   33  A    between atoms: _89  and  _90
REMARK   34  A    between atoms: _95  and  _97
REMARK   35  A    between atoms: _97  and  _98
REMARK   36  A    between atoms: _97  and  _100
REMARK   37  A    between atoms: _100  and  _101
REMARK   38  A    between atoms: _107  and  _109
REMARK   39  A    between atoms: _120  and  _123
REMARK   40  A    between atoms: _123  and  _124
REMARK   41  A    between atoms: _132  and  _133
REMARK   42  A    between atoms: _141  and  _143
REMARK   43  A    between atoms: _143  and  _144
REMARK   44  A    between atoms: _143  and  _146
REMARK   45  A    between atoms: _146  and  _147
REMARK   46  A    between atoms: _147  and  _148
REMARK   47  A    between atoms: _151  and  _153
REMARK   48  A    between atoms: _153  and  _154
REMARK   49  A    between atoms: _153  and  _156
REMARK   50  A    between atoms: _156  and  _157
REMARK   51  A    between atoms: _162  and  _164
REMARK   52  A    between atoms: _164  and  _165
REMARK   53  A    between atoms: _164  and  _167
REMARK   54  A    between atoms: _167  and  _168
REMARK   55  A    between atoms: _168  and  _169
REMARK   56  A    between atoms: _172  and  _174
REMARK   57  A    between atoms: _174  and  _175
REMARK   58  A    between atoms: _174  and  _177
REMARK   59  A    between atoms: _177  and  _178
REMARK   60  A    between atoms: _181  and  _183
REMARK   61  A    between atoms: _183  and  _184
REMARK   62  A    between atoms: _183  and  _186
REMARK   63  A    between atoms: _186  and  _187
REMARK   64  A    between atoms: _188  and  ZN_420
REMARK   65  A    between atoms: _192  and  _194
REMARK   66  A    between atoms: _194  and  _195
REMARK   67  A    between atoms: _194  and  _197
REMARK   68  A    between atoms: _197  and  _198
REMARK   69  A    between atoms: _201  and  _203
REMARK   70  A    between atoms: _203  and  _204
REMARK   71  A    between atoms: _203  and  _206
REMARK   72  A    between atoms: _209  and  _211
REMARK   73  A    between atoms: _211  and  _212
REMARK   74  A    between atoms: _211  and  _214
REMARK   75  A    between atoms: _214  and  _215
REMARK   76  A    between atoms: _220  and  _222
REMARK   77  A    between atoms: _222  and  _223
REMARK   78  A    between atoms: _222  and  _225
REMARK   79  A    between atoms: _225  and  _226
REMARK   80  A    between atoms: _232  and  _234
REMARK   81  A    between atoms: _234  and  _235
REMARK   82  A    between atoms: _237  and  _239
REMARK   83  A    between atoms: _239  and  _240
REMARK   84  A    between atoms: _239  and  _242
REMARK   85  A    between atoms: _245  and  _247
REMARK   86  A    between atoms: _247  and  _248
REMARK   87  A    between atoms: _247  and  _250
REMARK   88  A    between atoms: _250  and  _251
REMARK   89  A    between atoms: _251  and  _252
REMARK   90  A    between atoms: _257  and  _259
REMARK   91  A    between atoms: _259  and  _260
REMARK   92  A    between atoms: _259  and  _262
REMARK   93  A    between atoms: _262  and  _263
REMARK   94  A    between atoms: _266  and  _268
REMARK   95  A    between atoms: _268  and  _269
REMARK   96  A    between atoms: _272  and  _274
REMARK   97  A    between atoms: _274  and  _275
REMARK   98  A    between atoms: _274  and  _277
REMARK   99  A    between atoms: _280  and  _282
REMARK  100  A    between atoms: _282  and  _283
REMARK  101  A    between atoms: _282  and  _285
REMARK  102  A    between atoms: _285  and  _286
REMARK  103  A    between atoms: _289  and  _291
REMARK  104  A    between atoms: _291  and  _292
REMARK  105  A    between atoms: _294  and  _296
REMARK  106  A    between atoms: _296  and  _297
REMARK  107  A    between atoms: _296  and  _299
REMARK  108  A    between atoms: _299  and  _300
REMARK  109  A    between atoms: _302  and  _304
REMARK  110  A    between atoms: _304  and  _305
REMARK  111  A    between atoms: _304  and  _307
REMARK  112  A    between atoms: _307  and  _308
REMARK  113  A    between atoms: _311  and  _313
REMARK  114  A    between atoms: _313  and  _314
REMARK  115  A    between atoms: _313  and  _316
REMARK  116  A    between atoms: _316  and  _317
REMARK  117  A    between atoms: _320  and  _322
REMARK  118  A    between atoms: _322  and  _323
REMARK  119  A    between atoms: _322  and  _325
REMARK  120  A    between atoms: _325  and  _326
REMARK  121  A    between atoms: _330  and  _331
REMARK  122  A    between atoms: _337  and  _338
REMARK  123  A    between atoms: _343  and  _345
REMARK  124  A    between atoms: _345  and  _346
REMARK  125  A    between atoms: _345  and  _348
REMARK  126  A    between atoms: _348  and  _349
REMARK  127  A    between atoms: _352  and  _354
REMARK  128  A    between atoms: _354  and  _355
REMARK  129  A    between atoms: _354  and  _357
REMARK  130  A    between atoms: _357  and  _358
REMARK  131  A    between atoms: _361  and  _363
REMARK  132  A    between atoms: _363  and  _364
REMARK  133  A    between atoms: _363  and  _366
REMARK  134  A    between atoms: _368  and  _370
REMARK  135  A    between atoms: _370  and  _371
REMARK  136  A    between atoms: _370  and  _373
REMARK  137  A    between atoms: _376  and  _378
REMARK  138  A    between atoms: _378  and  _379
REMARK  139  A    between atoms: _378  and  _381
REMARK  140  A    between atoms: _381  and  _382
REMARK  141  A    between atoms: _392  and  _394
REMARK  142  A    between atoms: _394  and  _395
REMARK  143  A    between atoms: _394  and  _397
REMARK  144  A    between atoms: _397  and  _398
REMARK  145  A    between atoms: _403  and  _405
REMARK  146  A    between atoms: _405  and  _406
REMARK  147  A    between atoms: _405  and  _408
REMARK  148  A    between atoms: _408  and  _409
REMARK  149  A    between atoms: _409  and  _410
REMARK  150  A    between atoms: _410  and  _411
REMARK                            x       y       z     vdW  Elec       q    Type
REMARK                         _______ _______ _______ _____ _____    ______ ____
ROOT
ATOM      1  O   HOH     1      -6.696   9.717   8.102  0.00  0.00    +0.000 OA
ENDROOT
TORSDOF 0
REMARK  Name = ../refined-set-2016/3ibu/3ibu_pocket.pdb
REMARK  150 active torsions:
REMARK  status: ('A' for Active; 'I' for Inactive)
REMARK    1  A    between atoms: _1  and  _3
REMARK    2  A    between atoms: _3  and  _4
REMARK    3  A    between atoms: _3  and  _6
REMARK    4  A    between atoms: _6  and  _7
REMARK    5  A    between atoms: _17  and  _19
REMARK    6  A    between atoms: _19  and  _20
REMARK    7  A    between atoms: _19  and  _22
REMARK    8  A    between atoms: _22  and  _23
REMARK    9  A    between atoms: _28  and  _29
REMARK   10  A    between atoms: _31  and  _33
REMARK   11  A    between atoms: _33  and  _34
REMARK   12  A    between atoms: _33  and  _36
REMARK   13  A    between atoms: _36  and  _37
REMARK   14  A    between atoms: _40  and  _41
REMARK   15  A    between atoms: _46  and  _48
REMARK   16  A    between atoms: _48  and  _49
REMARK   17  A    between atoms: _48  and  _51
REMARK   18  A    between atoms: _51  and  _52
REMARK   19  A    between atoms: _57  and  _59
REMARK   20  A    between atoms: _59  and  _60
REMARK   21  A    between atoms: _63  and  _65
REMARK   22  A    between atoms: _65  and  _66
REMARK   23  A    between atoms: _65  and  _68
REMARK   24  A    between atoms: _68  and  _69
REMARK   25  A    between atoms: _74  and  _76
REMARK   26  A    between atoms: _76  and  _77
REMARK   27  A    between atoms: _76  and  _79
REMARK   28  A    between atoms: _79  and  _80
REMARK   29  A    between atoms: _83  and  _85
REMARK   30  A    between atoms: _85  and  _86
REMARK   31  A    between atoms: _85  and  _88
REMARK   32  A    between atoms: _88  and  _89
REMARK   33  A    between atoms: _89  and  _90
REMARK   34  A    between atoms: _95  and  _97
REMARK   35  A    between atoms: _97  and  _98
REMARK   36  A    between atoms: _97  and  _100
REMARK   37  A    between atoms: _100  and  _101
REMARK   38  A    between atoms: _107  and  _109
REMARK   39  A    between atoms: _120  and  _123
REMARK   40  A    between atoms: _123  and  _124
REMARK   41  A    between atoms: _132  and  _133
REMARK   42  A    between atoms: _141  and  _143
REMARK   43  A    between atoms: _143  and  _144
REMARK   44  A    between atoms: _143  and  _146
REMARK   45  A    between atoms: _146  and  _147
REMARK   46  A    between atoms: _147  and  _148
REMARK   47  A    between atoms: _151  and  _153
REMARK   48  A    between atoms: _153  and  _154
REMARK   49  A    between atoms: _153  and  _156
REMARK   50  A    between atoms: _156  and  _157
REMARK   51  A    between atoms: _162  and  _164
REMARK   52  A    between atoms: _164  and  _165
REMARK   53  A    between atoms: _164  and  _167
REMARK   54  A    between atoms: _167  and  _168
REMARK   55  A    between atoms: _168  and  _169
REMARK   56  A    between atoms: _172  and  _174
REMARK   57  A    between atoms: _174  and  _175
REMARK   58  A    between atoms: _174  and  _177
REMARK   59  A    between atoms: _177  and  _178
REMARK   60  A    between atoms: _181  and  _183
REMARK   61  A    between atoms: _183  and  _184
REMARK   62  A    between atoms: _183  and  _186
REMARK   63  A    between atoms: _186  and  _187
REMARK   64  A    between atoms: _188  and  ZN_420
REMARK   65  A    between atoms: _192  and  _194
REMARK   66  A    between atoms: _194  and  _195
REMARK   67  A    between atoms: _194  and  _197
REMARK   68  A    between atoms: _197  and  _198
REMARK   69  A    between atoms: _201  and  _203
REMARK   70  A    between atoms: _203  and  _204
REMARK   71  A    between atoms: _203  and  _206
REMARK   72  A    between atoms: _209  and  _211
REMARK   73  A    between atoms: _211  and  _212
REMARK   74  A    between atoms: _211  and  _214
REMARK   75  A    between atoms: _214  and  _215
REMARK   76  A    between atoms: _220  and  _222
REMARK   77  A    between atoms: _222  and  _223
REMARK   78  A    between atoms: _222  and  _225
REMARK   79  A    between atoms: _225  and  _226
REMARK   80  A    between atoms: _232  and  _234
REMARK   81  A    between atoms: _234  and  _235
REMARK   82  A    between atoms: _237  and  _239
REMARK   83  A    between atoms: _239  and  _240
REMARK   84  A    between atoms: _239  and  _242
REMARK   85  A    between atoms: _245  and  _247
REMARK   86  A    between atoms: _247  and  _248
REMARK   87  A    between atoms: _247  and  _250
REMARK   88  A    between atoms: _250  and  _251
REMARK   89  A    between atoms: _251  and  _252
REMARK   90  A    between atoms: _257  and  _259
REMARK   91  A    between atoms: _259  and  _260
REMARK   92  A    between atoms: _259  and  _262
REMARK   93  A    between atoms: _262  and  _263
REMARK   94  A    between atoms: _266  and  _268
REMARK   95  A    between atoms: _268  and  _269
REMARK   96  A    between atoms: _272  and  _274
REMARK   97  A    between atoms: _274  and  _275
REMARK   98  A    between atoms: _274  and  _277
REMARK   99  A    between atoms: _280  and  _282
REMARK  100  A    between atoms: _282  and  _283
REMARK  101  A    between atoms: _282  and  _285
REMARK  102  A    between atoms: _285  and  _286
REMARK  103  A    between atoms: _289  and  _291
REMARK  104  A    between atoms: _291  and  _292
REMARK  105  A    between atoms: _294  and  _296
REMARK  106  A    between atoms: _296  and  _297
REMARK  107  A    between atoms: _296  and  _299
REMARK  108  A    between atoms: _299  and  _300
REMARK  109  A    between atoms: _302  and  _304
REMARK  110  A    between atoms: _304  and  _305
REMARK  111  A    between atoms: _304  and  _307
REMARK  112  A    between atoms: _307  and  _308
REMARK  113  A    between atoms: _311  and  _313
REMARK  114  A    between atoms: _313  and  _314
REMARK  115  A    between atoms: _313  and  _316
REMARK  116  A    between atoms: _316  and  _317
REMARK  117  A    between atoms: _320  and  _322
REMARK  118  A    between atoms: _322  and  _323
REMARK  119  A    between atoms: _322  and  _325
REMARK  120  A    between atoms: _325  and  _326
REMARK  121  A    between atoms: _330  and  _331
REMARK  122  A    between atoms: _337  and  _338
REMARK  123  A    between atoms: _343  and  _345
REMARK  124  A    between atoms: _345  and  _346
REMARK  125  A    between atoms: _345  and  _348
REMARK  126  A    between atoms: _348  and  _349
REMARK  127  A    between atoms: _352  and  _354
REMARK  128  A    between atoms: _354  and  _355
REMARK  129  A    between atoms: _354  and  _357
REMARK  130  A    between atoms: _357  and  _358
REMARK  131  A    between atoms: _361  and  _363
REMARK  132  A    between atoms: _363  and  _364
REMARK  133  A    between atoms: _363  and  _366
REMARK  134  A    between atoms: _368  and  _370
REMARK  135  A    between atoms: _370  and  _371
REMARK  136  A    between atoms: _370  and  _373
REMARK  137  A    between atoms: _376  and  _378
REMARK  138  A    between atoms: _378  and  _379
REMARK  139  A    between atoms: _378  and  _381
REMARK  140  A    between atoms: _381  and  _382
REMARK  141  A    between atoms: _392  and  _394
REMARK  142  A    between atoms: _394  and  _395
REMARK  143  A    between atoms: _394  and  _397
REMARK  144  A    between atoms: _397  and  _398
REMARK  145  A    between atoms: _403  and  _405
REMARK  146  A    between atoms: _405  and  _406
REMARK  147  A    between atoms: _405  and  _408
REMARK  148  A    between atoms: _408  and  _409
REMARK  149  A    between atoms: _409  and  _410
REMARK  150  A    between atoms: _410  and  _411
REMARK                            x       y       z     vdW  Elec       q    Type
REMARK                         _______ _______ _______ _____ _____    ______ ____
ROOT
ATOM      1  O   HOH     1       1.244   4.573  12.034  0.00  0.00    +0.000 OA
ENDROOT
TORSDOF 0
REMARK  Name = ../refined-set-2016/3ibu/3ibu_pocket.pdb
REMARK  150 active torsions:
REMARK  status: ('A' for Active; 'I' for Inactive)
REMARK    1  A    between atoms: _1  and  _3
REMARK    2  A    between atoms: _3  and  _4
REMARK    3  A    between atoms: _3  and  _6
REMARK    4  A    between atoms: _6  and  _7
REMARK    5  A    between atoms: _17  and  _19
REMARK    6  A    between atoms: _19  and  _20
REMARK    7  A    between atoms: _19  and  _22
REMARK    8  A    between atoms: _22  and  _23
REMARK    9  A    between atoms: _28  and  _29
REMARK   10  A    between atoms: _31  and  _33
REMARK   11  A    between atoms: _33  and  _34
REMARK   12  A    between atoms: _33  and  _36
REMARK   13  A    between atoms: _36  and  _37
REMARK   14  A    between atoms: _40  and  _41
REMARK   15  A    between atoms: _46  and  _48
REMARK   16  A    between atoms: _48  and  _49
REMARK   17  A    between atoms: _48  and  _51
REMARK   18  A    between atoms: _51  and  _52
REMARK   19  A    between atoms: _57  and  _59
REMARK   20  A    between atoms: _59  and  _60
REMARK   21  A    between atoms: _63  and  _65
REMARK   22  A    between atoms: _65  and  _66
REMARK   23  A    between atoms: _65  and  _68
REMARK   24  A    between atoms: _68  and  _69
REMARK   25  A    between atoms: _74  and  _76
REMARK   26  A    between atoms: _76  and  _77
REMARK   27  A    between atoms: _76  and  _79
REMARK   28  A    between atoms: _79  and  _80
REMARK   29  A    between atoms: _83  and  _85
REMARK   30  A    between atoms: _85  and  _86
REMARK   31  A    between atoms: _85  and  _88
REMARK   32  A    between atoms: _88  and  _89
REMARK   33  A    between atoms: _89  and  _90
REMARK   34  A    between atoms: _95  and  _97
REMARK   35  A    between atoms: _97  and  _98
REMARK   36  A    between atoms: _97  and  _100
REMARK   37  A    between atoms: _100  and  _101
REMARK   38  A    between atoms: _107  and  _109
REMARK   39  A    between atoms: _120  and  _123
REMARK   40  A    between atoms: _123  and  _124
REMARK   41  A    between atoms: _132  and  _133
REMARK   42  A    between atoms: _141  and  _143
REMARK   43  A    between atoms: _143  and  _144
REMARK   44  A    between atoms: _143  and  _146
REMARK   45  A    between atoms: _146  and  _147
REMARK   46  A    between atoms: _147  and  _148
REMARK   47  A    between atoms: _151  and  _153
REMARK   48  A    between atoms: _153  and  _154
REMARK   49  A    between atoms: _153  and  _156
REMARK   50  A    between atoms: _156  and  _157
REMARK   51  A    between atoms: _162  and  _164
REMARK   52  A    between atoms: _164  and  _165
REMARK   53  A    between atoms: _164  and  _167
REMARK   54  A    between atoms: _167  and  _168
REMARK   55  A    between atoms: _168  and  _169
REMARK   56  A    between atoms: _172  and  _174
REMARK   57  A    between atoms: _174  and  _175
REMARK   58  A    between atoms: _174  and  _177
REMARK   59  A    between atoms: _177  and  _178
REMARK   60  A    between atoms: _181  and  _183
REMARK   61  A    between atoms: _183  and  _184
REMARK   62  A    between atoms: _183  and  _186
REMARK   63  A    between atoms: _186  and  _187
REMARK   64  A    between atoms: _188  and  ZN_420
REMARK   65  A    between atoms: _192  and  _194
REMARK   66  A    between atoms: _194  and  _195
REMARK   67  A    between atoms: _194  and  _197
REMARK   68  A    between atoms: _197  and  _198
REMARK   69  A    between atoms: _201  and  _203
REMARK   70  A    between atoms: _203  and  _204
REMARK   71  A    between atoms: _203  and  _206
REMARK   72  A    between atoms: _209  and  _211
REMARK   73  A    between atoms: _211  and  _212
REMARK   74  A    between atoms: _211  and  _214
REMARK   75  A    between atoms: _214  and  _215
REMARK   76  A    between atoms: _220  and  _222
REMARK   77  A    between atoms: _222  and  _223
REMARK   78  A    between atoms: _222  and  _225
REMARK   79  A    between atoms: _225  and  _226
REMARK   80  A    between atoms: _232  and  _234
REMARK   81  A    between atoms: _234  and  _235
REMARK   82  A    between atoms: _237  and  _239
REMARK   83  A    between atoms: _239  and  _240
REMARK   84  A    between atoms: _239  and  _242
REMARK   85  A    between atoms: _245  and  _247
REMARK   86  A    between atoms: _247  and  _248
REMARK   87  A    between atoms: _247  and  _250
REMARK   88  A    between atoms: _250  and  _251
REMARK   89  A    between atoms: _251  and  _252
REMARK   90  A    between atoms: _257  and  _259
REMARK   91  A    between atoms: _259  and  _260
REMARK   92  A    between atoms: _259  and  _262
REMARK   93  A    between atoms: _262  and  _263
REMARK   94  A    between atoms: _266  and  _268
REMARK   95  A    between atoms: _268  and  _269
REMARK   96  A    between atoms: _272  and  _274
REMARK   97  A    between atoms: _274  and  _275
REMARK   98  A    between atoms: _274  and  _277
REMARK   99  A    between atoms: _280  and  _282
REMARK  100  A    between atoms: _282  and  _283
REMARK  101  A    between atoms: _282  and  _285
REMARK  102  A    between atoms: _285  and  _286
REMARK  103  A    between atoms: _289  and  _291
REMARK  104  A    between atoms: _291  and  _292
REMARK  105  A    between atoms: _294  and  _296
REMARK  106  A    between atoms: _296  and  _297
REMARK  107  A    between atoms: _296  and  _299
REMARK  108  A    between atoms: _299  and  _300
REMARK  109  A    between atoms: _302  and  _304
REMARK  110  A    between atoms: _304  and  _305
REMARK  111  A    between atoms: _304  and  _307
REMARK  112  A    between atoms: _307  and  _308
REMARK  113  A    between atoms: _311  and  _313
REMARK  114  A    between atoms: _313  and  _314
REMARK  115  A    between atoms: _313  and  _316
REMARK  116  A    between atoms: _316  and  _317
REMARK  117  A    between atoms: _320  and  _322
REMARK  118  A    between atoms: _322  and  _323
REMARK  119  A    between atoms: _322  and  _325
REMARK  120  A    between atoms: _325  and  _326
REMARK  121  A    between atoms: _330  and  _331
REMARK  122  A    between atoms: _337  and  _338
REMARK  123  A    between atoms: _343  and  _345
REMARK  124  A    between atoms: _345  and  _346
REMARK  125  A    between atoms: _345  and  _348
REMARK  126  A    between atoms: _348  and  _349
REMARK  127  A    between atoms: _352  and  _354
REMARK  128  A    between atoms: _354  and  _355
REMARK  129  A    between atoms: _354  and  _357
REMARK  130  A    between atoms: _357  and  _358
REMARK  131  A    between atoms: _361  and  _363
REMARK  132  A    between atoms: _363  and  _364
REMARK  133  A    between atoms: _363  and  _366
REMARK  134  A    between atoms: _368  and  _370
REMARK  135  A    between atoms: _370  and  _371
REMARK  136  A    between atoms: _370  and  _373
REMARK  137  A    between atoms: _376  and  _378
REMARK  138  A    between atoms: _378  and  _379
REMARK  139  A    between atoms: _378  and  _381
REMARK  140  A    between atoms: _381  and  _382
REMARK  141  A    between atoms: _392  and  _394
REMARK  142  A    between atoms: _394  and  _395
REMARK  143  A    between atoms: _394  and  _397
REMARK  144  A    between atoms: _397  and  _398
REMARK  145  A    between atoms: _403  and  _405
REMARK  146  A    between atoms: _405  and  _406
REMARK  147  A    between atoms: _405  and  _408
REMARK  148  A    between atoms: _408  and  _409
REMARK  149  A    between atoms: _409  and  _410
REMARK  150  A    between atoms: _410  and  _411
REMARK                            x       y       z     vdW  Elec       q    Type
REMARK                         _______ _______ _______ _____ _____    ______ ____
ROOT
ATOM      1  O   HOH     1      -1.197   1.928  11.335  0.00  0.00    +0.000 OA
ENDROOT
TORSDOF 0
