REMARK  Name = ../refined-set-2016/3fql/3fql_pocket.pdb
REMARK  245 active torsions:
REMARK  status: ('A' for Active; 'I' for Inactive)
REMARK    1  A    between atoms: _1  and  _3
REMARK    2  A    between atoms: _3  and  _4
REMARK    3  A    between atoms: _3  and  _6
REMARK    4  A    between atoms: _6  and  _7
REMARK    5  A    between atoms: _9  and  _11
REMARK    6  A    between atoms: _11  and  _12
REMARK    7  A    between atoms: _11  and  _14
REMARK    8  A    between atoms: _14  and  _15
REMARK    9  A    between atoms: _20  and  _21
REMARK   10  A    between atoms: _23  and  _25
REMARK   11  A    between atoms: _25  and  _26
REMARK   12  A    between atoms: _28  and  _30
REMARK   13  A    between atoms: _30  and  _31
REMARK   14  A    between atoms: _30  and  _33
REMARK   15  A    between atoms: _33  and  _34
REMARK   16  A    between atoms: _40  and  _42
REMARK   17  A    between atoms: _42  and  _43
REMARK   18  A    between atoms: _42  and  _45
REMARK   19  A    between atoms: _45  and  _46
REMARK   20  A    between atoms: _46  and  _47
REMARK   21  A    between atoms: _52  and  _54
REMARK   22  A    between atoms: _54  and  _55
REMARK   23  A    between atoms: _54  and  _57
REMARK   24  A    between atoms: _57  and  _58
REMARK   25  A    between atoms: _63  and  _64
REMARK   26  A    between atoms: _66  and  _68
REMARK   27  A    between atoms: _68  and  _69
REMARK   28  A    between atoms: _68  and  _71
REMARK   29  A    between atoms: _71  and  _72
REMARK   30  A    between atoms: _75  and  _76
REMARK   31  A    between atoms: _81  and  _83
REMARK   32  A    between atoms: _83  and  _84
REMARK   33  A    between atoms: _86  and  _88
REMARK   34  A    between atoms: _88  and  _89
REMARK   35  A    between atoms: _88  and  _91
REMARK   36  A    between atoms: _91  and  _92
REMARK   37  A    between atoms: _92  and  _93
REMARK   38  A    between atoms: _98  and  _100
REMARK   39  A    between atoms: _100  and  _101
REMARK   40  A    between atoms: _100  and  _103
REMARK   41  A    between atoms: _103  and  _104
REMARK   42  A    between atoms: _104  and  _105
REMARK   43  A    between atoms: _105  and  _106
REMARK   44  A    between atoms: _115  and  _117
REMARK   45  A    between atoms: _117  and  _118
REMARK   46  A    between atoms: _117  and  _120
REMARK   47  A    between atoms: _123  and  _125
REMARK   48  A    between atoms: _125  and  _126
REMARK   49  A    between atoms: _125  and  _128
REMARK   50  A    between atoms: _128  and  _129
REMARK   51  A    between atoms: _135  and  _137
REMARK   52  A    between atoms: _137  and  _138
REMARK   53  A    between atoms: _137  and  _140
REMARK   54  A    between atoms: _140  and  _141
REMARK   55  A    between atoms: _144  and  _146
REMARK   56  A    between atoms: _146  and  _147
REMARK   57  A    between atoms: _146  and  _149
REMARK   58  A    between atoms: _149  and  _150
REMARK   59  A    between atoms: _160  and  _162
REMARK   60  A    between atoms: _162  and  _163
REMARK   61  A    between atoms: _165  and  _167
REMARK   62  A    between atoms: _167  and  _168
REMARK   63  A    between atoms: _167  and  _170
REMARK   64  A    between atoms: _170  and  _171
REMARK   65  A    between atoms: _177  and  _179
REMARK   66  A    between atoms: _179  and  _180
REMARK   67  A    between atoms: _183  and  _185
REMARK   68  A    between atoms: _185  and  _186
REMARK   69  A    between atoms: _185  and  _188
REMARK   70  A    between atoms: _188  and  _189
REMARK   71  A    between atoms: _194  and  _195
REMARK   72  A    between atoms: _197  and  _199
REMARK   73  A    between atoms: _199  and  _200
REMARK   74  A    between atoms: _199  and  _202
REMARK   75  A    between atoms: _202  and  _203
REMARK   76  A    between atoms: _203  and  _204
REMARK   77  A    between atoms: _206  and  _208
REMARK   78  A    between atoms: _208  and  _209
REMARK   79  A    between atoms: _208  and  _211
REMARK   80  A    between atoms: _211  and  _212
REMARK   81  A    between atoms: _215  and  _217
REMARK   82  A    between atoms: _217  and  _218
REMARK   83  A    between atoms: _217  and  _220
REMARK   84  A    between atoms: _223  and  _225
REMARK   85  A    between atoms: _225  and  _226
REMARK   86  A    between atoms: _225  and  _228
REMARK   87  A    between atoms: _230  and  _232
REMARK   88  A    between atoms: _232  and  _233
REMARK   89  A    between atoms: _235  and  _237
REMARK   90  A    between atoms: _237  and  _238
REMARK   91  A    between atoms: _237  and  _240
REMARK   92  A    between atoms: _240  and  _241
REMARK   93  A    between atoms: _244  and  _246
REMARK   94  A    between atoms: _246  and  _247
REMARK   95  A    between atoms: _246  and  _249
REMARK   96  A    between atoms: _249  and  _250
REMARK   97  A    between atoms: _253  and  _255
REMARK   98  A    between atoms: _255  and  _256
REMARK   99  A    between atoms: _255  and  _258
REMARK  100  A    between atoms: _258  and  _259
REMARK  101  A    between atoms: _262  and  _264
REMARK  102  A    between atoms: _264  and  _265
REMARK  103  A    between atoms: _264  and  _267
REMARK  104  A    between atoms: _270  and  _272
REMARK  105  A    between atoms: _272  and  _273
REMARK  106  A    between atoms: _272  and  _275
REMARK  107  A    between atoms: _278  and  _280
REMARK  108  A    between atoms: _280  and  _281
REMARK  109  A    between atoms: _280  and  _283
REMARK  110  A    between atoms: _283  and  _284
REMARK  111  A    between atoms: _287  and  _289
REMARK  112  A    between atoms: _289  and  _290
REMARK  113  A    between atoms: _289  and  _292
REMARK  114  A    between atoms: _292  and  _293
REMARK  115  A    between atoms: _293  and  _294
REMARK  116  A    between atoms: _297  and  _299
REMARK  117  A    between atoms: _299  and  _300
REMARK  118  A    between atoms: _299  and  _302
REMARK  119  A    between atoms: _302  and  _303
REMARK  120  A    between atoms: _306  and  _308
REMARK  121  A    between atoms: _308  and  _309
REMARK  122  A    between atoms: _308  and  _311
REMARK  123  A    between atoms: _311  and  _312
REMARK  124  A    between atoms: _315  and  _317
REMARK  125  A    between atoms: _317  and  _318
REMARK  126  A    between atoms: _317  and  _320
REMARK  127  A    between atoms: _320  and  _321
REMARK  128  A    between atoms: _321  and  _322
REMARK  129  A    between atoms: _325  and  _327
REMARK  130  A    between atoms: _327  and  _328
REMARK  131  A    between atoms: _327  and  _330
REMARK  132  A    between atoms: _330  and  _331
REMARK  133  A    between atoms: _334  and  _336
REMARK  134  A    between atoms: _336  and  _337
REMARK  135  A    between atoms: _336  and  _339
REMARK  136  A    between atoms: _339  and  _340
REMARK  137  A    between atoms: _343  and  _345
REMARK  138  A    between atoms: _345  and  _346
REMARK  139  A    between atoms: _345  and  _348
REMARK  140  A    between atoms: _348  and  _349
REMARK  141  A    between atoms: _352  and  _354
REMARK  142  A    between atoms: _354  and  _355
REMARK  143  A    between atoms: _354  and  _357
REMARK  144  A    between atoms: _357  and  _358
REMARK  145  A    between atoms: _360  and  _362
REMARK  146  A    between atoms: _362  and  _363
REMARK  147  A    between atoms: _362  and  _365
REMARK  148  A    between atoms: _367  and  _369
REMARK  149  A    between atoms: _369  and  _370
REMARK  150  A    between atoms: _369  and  _372
REMARK  151  A    between atoms: _372  and  _373
REMARK  152  A    between atoms: _375  and  _377
REMARK  153  A    between atoms: _377  and  _378
REMARK  154  A    between atoms: _377  and  _380
REMARK  155  A    between atoms: _380  and  _381
REMARK  156  A    between atoms: _383  and  _385
REMARK  157  A    between atoms: _385  and  _386
REMARK  158  A    between atoms: _385  and  _388
REMARK  159  A    between atoms: _388  and  _389
REMARK  160  A    between atoms: _394  and  _396
REMARK  161  A    between atoms: _396  and  _397
REMARK  162  A    between atoms: _396  and  _399
REMARK  163  A    between atoms: _402  and  _404
REMARK  164  A    between atoms: _404  and  _405
REMARK  165  A    between atoms: _404  and  _407
REMARK  166  A    between atoms: _407  and  _408
REMARK  167  A    between atoms: _413  and  _414
REMARK  168  A    between atoms: _416  and  _418
REMARK  169  A    between atoms: _418  and  _419
REMARK  170  A    between atoms: _418  and  _421
REMARK  171  A    between atoms: _421  and  _422
REMARK  172  A    between atoms: _425  and  _427
REMARK  173  A    between atoms: _427  and  _428
REMARK  174  A    between atoms: _427  and  _430
REMARK  175  A    between atoms: _430  and  _431
REMARK  176  A    between atoms: _434  and  _436
REMARK  177  A    between atoms: _436  and  _437
REMARK  178  A    between atoms: _436  and  _439
REMARK  179  A    between atoms: _439  and  _440
REMARK  180  A    between atoms: _440  and  _441
REMARK  181  A    between atoms: _441  and  _442
REMARK  182  A    between atoms: _451  and  _453
REMARK  183  A    between atoms: _453  and  _454
REMARK  184  A    between atoms: _456  and  _458
REMARK  185  A    between atoms: _458  and  _459
REMARK  186  A    between atoms: _458  and  _461
REMARK  187  A    between atoms: _461  and  _462
REMARK  188  A    between atoms: _467  and  _469
REMARK  189  A    between atoms: _469  and  _470
REMARK  190  A    between atoms: _469  and  _472
REMARK  191  A    between atoms: _472  and  _473
REMARK  192  A    between atoms: _476  and  _478
REMARK  193  A    between atoms: _478  and  _479
REMARK  194  A    between atoms: _478  and  _481
REMARK  195  A    between atoms: _481  and  _482
REMARK  196  A    between atoms: _482  and  _483
REMARK  197  A    between atoms: _485  and  _487
REMARK  198  A    between atoms: _487  and  _488
REMARK  199  A    between atoms: _487  and  _490
REMARK  200  A    between atoms: _490  and  _491
REMARK  201  A    between atoms: _496  and  _497
REMARK  202  A    between atoms: _499  and  _501
REMARK  203  A    between atoms: _501  and  _502
REMARK  204  A    between atoms: _506  and  _507
REMARK  205  A    between atoms: _512  and  _514
REMARK  206  A    between atoms: _514  and  _515
REMARK  207  A    between atoms: _514  and  _517
REMARK  208  A    between atoms: _517  and  _518
REMARK  209  A    between atoms: _521  and  _523
REMARK  210  A    between atoms: _523  and  _524
REMARK  211  A    between atoms: _523  and  _526
REMARK  212  A    between atoms: _526  and  _527
REMARK  213  A    between atoms: _527  and  _528
REMARK  214  A    between atoms: _533  and  _535
REMARK  215  A    between atoms: _535  and  _536
REMARK  216  A    between atoms: _535  and  _538
REMARK  217  A    between atoms: _538  and  _539
REMARK  218  A    between atoms: _542  and  _544
REMARK  219  A    between atoms: _544  and  _545
REMARK  220  A    between atoms: _544  and  _547
REMARK  221  A    between atoms: _547  and  _548
REMARK  222  A    between atoms: _553  and  _554
REMARK  223  A    between atoms: _556  and  _558
REMARK  224  A    between atoms: _558  and  _559
REMARK  225  A    between atoms: _561  and  _563
REMARK  226  A    between atoms: _563  and  _564
REMARK  227  A    between atoms: _563  and  _566
REMARK  228  A    between atoms: _566  and  _567
REMARK  229  A    between atoms: _570  and  _572
REMARK  230  A    between atoms: _572  and  _573
REMARK  231  A    between atoms: _572  and  _575
REMARK  232  A    between atoms: _575  and  _576
REMARK  233  A    between atoms: _581  and  _583
REMARK  234  A    between atoms: _583  and  _584
REMARK  235  A    between atoms: _583  and  _586
REMARK  236  A    between atoms: _586  and  _587
REMARK  237  A    between atoms: _593  and  _595
REMARK  238  A    between atoms: _595  and  _596
REMARK  239  A    between atoms: _599  and  _601
REMARK  240  A    between atoms: _601  and  _602
REMARK  241  A    between atoms: _604  and  _606
REMARK  242  A    between atoms: _606  and  _607
REMARK  243  A    between atoms: _606  and  _609
REMARK  244  A    between atoms: _609  and  _610
REMARK  245  A    between atoms: _615  and  _616
REMARK                            x       y       z     vdW  Elec       q    Type
REMARK                         _______ _______ _______ _____ _____    ______ ____
ROOT
ATOM      1  CA  TYR A   6      -7.750 -12.595   6.585  0.00  0.00    +0.153 C 
ENDROOT
BRANCH   1   3
ATOM      2  C   GLN A   5      -5.974 -12.168   8.230  0.00  0.00    +0.241 C 
ATOM      3  N   TYR A   6      -7.201 -12.587   7.944  0.00  0.00    -0.297 N 
ATOM      4  H   TYR A   6      -7.802 -12.926   8.722  0.00  0.00    +0.150 HD
ATOM      5  O   GLN A   5      -5.222 -11.679   7.397  0.00  0.00    -0.273 OA
BRANCH   2   6
ATOM      6  CA  GLN A   5      -5.500 -12.339   9.682  0.00  0.00    +0.149 C 
BRANCH   6   8
ATOM      7  C   PHE A   4      -7.392 -11.479  10.947  0.00  0.00    +0.241 C 
ATOM      8  N   GLN A   5      -6.578 -12.489  10.648  0.00  0.00    -0.297 N 
ATOM      9  H   GLN A   5      -6.716 -13.407  11.116  0.00  0.00    +0.150 HD
ATOM     10  O   PHE A   4      -7.288 -10.373  10.421  0.00  0.00    -0.273 OA
BRANCH   7  11
ATOM     11  CA  PHE A   4      -8.486 -11.719  11.998  0.00  0.00    +0.153 C 
BRANCH  11  13
ATOM     12  C   GLY A   3      -9.456 -13.910  11.569  0.00  0.00    +0.243 C 
ATOM     13  N   PHE A   4      -8.734 -13.124  12.364  0.00  0.00    -0.297 N 
ATOM     14  H   PHE A   4      -8.342 -13.504  13.249  0.00  0.00    +0.150 HD
ATOM     15  O   GLY A   3      -9.877 -13.528  10.477  0.00  0.00    -0.273 OA
BRANCH  12  16
ATOM     16  CA  GLY A   3      -9.791 -15.309  12.044  0.00  0.00    +0.176 C 
BRANCH  16  18
ATOM     17  C   TYR A   2      -7.683 -16.377  12.584  0.00  0.00    +0.241 C 
ATOM     18  N   GLY A   3      -8.857 -15.921  12.988  0.00  0.00    -0.295 N 
ATOM     19  H   GLY A   3      -9.120 -15.999  13.991  0.00  0.00    +0.150 HD
ATOM     20  O   TYR A   2      -7.209 -16.116  11.486  0.00  0.00    -0.273 OA
BRANCH  17  21
ATOM     21  CA  TYR A   2      -6.941 -17.264  13.572  0.00  0.00    +0.153 C 
BRANCH  21  24
ATOM     22  C   SER A   1      -8.006 -19.393  13.087  0.00  0.00    +0.241 C 
ATOM     23  O   SER A   1      -9.067 -18.988  13.545  0.00  0.00    -0.274 OA
ATOM     24  N   TYR A   2      -6.912 -18.636  13.061  0.00  0.00    -0.297 N 
ATOM     25  H   TYR A   2      -6.028 -19.023  12.674  0.00  0.00    +0.150 HD
BRANCH  22  26
ATOM     26  CA  SER A   1      -7.902 -20.818  12.539  0.00  0.00    +0.174 C 
BRANCH  26  27
ATOM     27  N   SER A   1      -6.714 -21.024  11.715  0.00  0.00    -0.236 NA
ATOM     28  H   SER A   1      -5.930 -21.595  12.091  0.00  0.00    +0.142 HD
ENDBRANCH  26  27
BRANCH  26  29
ATOM     29  CB  SER A   1      -7.957 -21.828  13.702  0.00  0.00    +0.163 C 
BRANCH  29  30
ATOM     30  OG  SER A   1      -8.114 -23.155  13.222  0.00  0.00    -0.380 OA
ATOM     31  H   SER A   1      -8.956 -23.220  12.706  0.00  0.00    +0.211 HD
ENDBRANCH  29  30
ENDBRANCH  26  29
ENDBRANCH  22  26
ENDBRANCH  21  24
BRANCH  21  32
ATOM     32  CB  TYR A   2      -5.541 -16.713  13.805  0.00  0.00    +0.055 C 
BRANCH  32  33
ATOM     33  CG  TYR A   2      -5.547 -15.278  14.258  0.00  0.00    -0.020 A 
ATOM     34  CD2 TYR A   2      -6.304 -14.888  15.350  0.00  0.00    -0.001 A 
ATOM     35  CE2 TYR A   2      -6.326 -13.579  15.779  0.00  0.00    +0.036 A 
ATOM     36  CZ  TYR A   2      -5.572 -12.629  15.133  0.00  0.00    +0.134 A 
ATOM     37  CE1 TYR A   2      -4.796 -12.981  14.046  0.00  0.00    +0.036 A 
ATOM     38  CD1 TYR A   2      -4.786 -14.308  13.608  0.00  0.00    -0.001 A 
BRANCH  36  39
ATOM     39  OH  TYR A   2      -5.614 -11.314  15.597  0.00  0.00    -0.506 OA
ATOM     40  HH  TYR A   2      -6.221 -11.260  16.378  0.00  0.00    +0.292 HD
ENDBRANCH  36  39
ENDBRANCH  32  33
ENDBRANCH  21  32
ENDBRANCH  17  21
ENDBRANCH  16  18
ENDBRANCH  12  16
ENDBRANCH  11  13
BRANCH  11  41
ATOM     41  CB  PHE A   4      -8.193 -10.870  13.245  0.00  0.00    +0.055 C 
BRANCH  41  42
ATOM     42  CG  PHE A   4      -9.360 -10.757  14.185  0.00  0.00    -0.020 A 
ATOM     43  CD2 PHE A   4      -9.287 -11.268  15.475  0.00  0.00    -0.004 A 
ATOM     44  CE2 PHE A   4     -10.372 -11.163  16.338  0.00  0.00    -0.000 A 
ATOM     45  CZ  PHE A   4     -11.533 -10.550  15.916  0.00  0.00    -0.000 A 
ATOM     46  CE1 PHE A   4     -11.618 -10.039  14.623  0.00  0.00    -0.000 A 
ATOM     47  CD1 PHE A   4     -10.542 -10.151  13.773  0.00  0.00    -0.004 A 
ENDBRANCH  41  42
ENDBRANCH  11  41
ENDBRANCH   7  11
ENDBRANCH   6   8
BRANCH   6  48
ATOM     48  CB  GLN A   5      -4.532 -13.528   9.755  0.00  0.00    +0.039 C 
BRANCH  48  49
ATOM     49  CG  GLN A   5      -5.108 -14.848   9.257  0.00  0.00    +0.087 C 
BRANCH  49  50
ATOM     50  CD  GLN A   5      -4.195 -16.015   9.523  0.00  0.00    +0.219 C 
ATOM     51  NE2 GLN A   5      -4.726 -17.059  10.138  0.00  0.00    -0.329 N 
ATOM     52 HE21 GLN A   5      -5.728 -17.044  10.417  0.00  0.00    +0.145 HD
ATOM     53 HE22 GLN A   5      -4.142 -17.895  10.343  0.00  0.00    +0.145 HD
ATOM     54  OE1 GLN A   5      -3.020 -15.978   9.172  0.00  0.00    -0.275 OA
ENDBRANCH  49  50
ENDBRANCH  48  49
ENDBRANCH   6  48
ENDBRANCH   2   6
ENDBRANCH   1   3
BRANCH   1  55
ATOM     55  C   TYR A   6      -8.404 -11.268   6.240  0.00  0.00    +0.241 C 
ATOM     56  O   TYR A   6      -9.109 -10.678   7.067  0.00  0.00    -0.273 OA
ATOM     57  N   SER A   7      -8.209 -10.823   4.998  0.00  0.00    -0.295 N 
ATOM     58  H   SER A   7      -7.418 -11.201   4.439  0.00  0.00    +0.150 HD
BRANCH  57  59
ATOM     59  CA  SER A   7      -9.081  -9.819   4.411  0.00  0.00    +0.178 C 
BRANCH  59  60
ATOM     60  C   SER A   7     -10.468 -10.457   4.201  0.00  0.00    +0.246 C 
ATOM     61  O   SER A   7     -10.596 -11.674   4.252  0.00  0.00    -0.273 OA
ATOM     62  N   PRO A   8     -11.512  -9.638   3.956  0.00  0.00    -0.272 N 
ATOM     63  CD  PRO A   8     -11.584  -8.169   4.018  0.00  0.00    +0.094 C 
ATOM     64  CG  PRO A   8     -13.058  -7.900   4.043  0.00  0.00    +0.024 C 
ATOM     65  CB  PRO A   8     -13.663  -9.009   3.259  0.00  0.00    +0.031 C 
ATOM     66  CA  PRO A   8     -12.812 -10.228   3.627  0.00  0.00    +0.152 C 
BRANCH  66  67
ATOM     67  C   PRO A   8     -12.761 -11.222   2.466  0.00  0.00    +0.241 C 
ATOM     68  O   PRO A   8     -13.348 -12.294   2.565  0.00  0.00    -0.273 OA
ATOM     69  N   GLY A   9     -12.055 -10.883   1.389  0.00  0.00    -0.295 N 
ATOM     70  H   GLY A   9     -11.574  -9.962   1.359  0.00  0.00    +0.150 HD
BRANCH  69  71
ATOM     71  CA  GLY A   9     -11.948 -11.796   0.242  0.00  0.00    +0.176 C 
BRANCH  71  72
ATOM     72  C   GLY A   9     -11.228 -13.096   0.588  0.00  0.00    +0.243 C 
ATOM     73  N   GLN A  10     -10.165 -12.980   1.378  0.00  0.00    -0.297 N 
ATOM     74  H   GLN A  10      -9.858 -12.034   1.681  0.00  0.00    +0.150 HD
ATOM     75  O   GLY A   9     -11.630 -14.187   0.156  0.00  0.00    -0.273 OA
BRANCH  73  76
ATOM     76  CA  GLN A  10      -9.420 -14.150   1.829  0.00  0.00    +0.149 C 
BRANCH  76  77
ATOM     77  C   GLN A  10     -10.264 -14.989   2.772  0.00  0.00    +0.241 C 
ATOM     78  N   ARG A  11     -11.043 -14.338   3.628  0.00  0.00    -0.297 N 
ATOM     79  H   ARG A  11     -11.039 -13.298   3.643  0.00  0.00    +0.150 HD
ATOM     80  O   GLN A  10     -10.186 -16.207   2.748  0.00  0.00    -0.273 OA
BRANCH  78  81
ATOM     81  CA  ARG A  11     -11.907 -15.075   4.550  0.00  0.00    +0.149 C 
BRANCH  81  82
ATOM     82  C   ARG A  11     -12.927 -15.916   3.778  0.00  0.00    +0.241 C 
ATOM     83  O   ARG A  11     -13.109 -17.091   4.074  0.00  0.00    -0.273 OA
ATOM     84  N   VAL A  12     -13.584 -15.322   2.785  0.00  0.00    -0.298 N 
ATOM     85  H   VAL A  12     -13.398 -14.322   2.568  0.00  0.00    +0.150 HD
BRANCH  84  86
ATOM     86  CA  VAL A  12     -14.571 -16.071   1.993  0.00  0.00    +0.137 C 
BRANCH  86  87
ATOM     87  CB  VAL A  12     -15.282 -15.203   0.913  0.00  0.00    +0.026 C 
ATOM     88  CG2 VAL A  12     -15.793 -13.934   1.486  0.00  0.00    +0.002 C 
ATOM     89  CG1 VAL A  12     -16.460 -15.987   0.314  0.00  0.00    +0.002 C 
ENDBRANCH  86  87
BRANCH  86  90
ATOM     90  C   VAL A  12     -13.942 -17.263   1.278  0.00  0.00    +0.227 C 
ATOM     91  O   VAL A  12     -14.528 -18.343   1.253  0.00  0.00    -0.286 OA
ENDBRANCH  86  90
ENDBRANCH  84  86
ENDBRANCH  81  82
BRANCH  81  92
ATOM     92  CB  ARG A  11     -12.605 -14.146   5.535  0.00  0.00    +0.033 C 
BRANCH  92  93
ATOM     93  CG  ARG A  11     -13.524 -14.874   6.546  0.00  0.00    +0.045 C 
BRANCH  93  94
ATOM     94  CD  ARG A  11     -14.290 -13.895   7.412  0.00  0.00    +0.174 C 
BRANCH  94  95
ATOM     95  NE  ARG A  11     -13.381 -12.833   7.801  0.00  0.00    -0.265 N 
ATOM     96  CZ  ARG A  11     -12.477 -12.939   8.761  0.00  0.00    +0.342 C 
ATOM     97  NH2 ARG A  11     -12.401 -14.050   9.485  0.00  0.00    -0.292 N 
ATOM     98 HH21 ARG A  11     -11.690 -14.131  10.239  0.00  0.00    +0.255 HD
ATOM     99 HH22 ARG A  11     -13.053 -14.838   9.298  0.00  0.00    +0.255 HD
ATOM    100  NH1 ARG A  11     -11.657 -11.924   8.996  0.00  0.00    -0.292 N 
ATOM    101 HH11 ARG A  11     -10.942 -11.996   9.748  0.00  0.00    +0.255 HD
ATOM    102 HH12 ARG A  11     -11.728 -11.056   8.428  0.00  0.00    +0.255 HD
ATOM    103  HE  ARG A  11     -13.444 -11.929   7.291  0.00  0.00    +0.259 HD
ENDBRANCH  94  95
ENDBRANCH  93  94
ENDBRANCH  92  93
ENDBRANCH  81  92
ENDBRANCH  78  81
ENDBRANCH  76  77
BRANCH  76 104
ATOM    104  CB  GLN A  10      -8.137 -13.732   2.535  0.00  0.00    +0.039 C 
BRANCH 104 105
ATOM    105  CG  GLN A  10      -7.088 -13.162   1.604  0.00  0.00    +0.087 C 
BRANCH 105 106
ATOM    106  CD  GLN A  10      -5.922 -12.539   2.352  0.00  0.00    +0.219 C 
ATOM    107  OE1 GLN A  10      -6.050 -12.120   3.504  0.00  0.00    -0.275 OA
ATOM    108  NE2 GLN A  10      -4.778 -12.474   1.694  0.00  0.00    -0.329 N 
ATOM    109 HE21 GLN A  10      -3.940 -12.057   2.147  0.00  0.00    +0.145 HD
ATOM    110 HE22 GLN A  10      -4.715 -12.840   0.723  0.00  0.00    +0.145 HD
ENDBRANCH 105 106
ENDBRANCH 104 105
ENDBRANCH  76 104
ENDBRANCH  73  76
ENDBRANCH  71  72
ENDBRANCH  69  71
ENDBRANCH  66  67
ENDBRANCH  59  60
BRANCH  59 111
ATOM    111  CB  SER A   7      -8.515  -9.353   3.074  0.00  0.00    +0.166 C 
BRANCH 111 112
ATOM    112  OG  SER A   7      -8.636 -10.368   2.107  0.00  0.00    -0.380 OA
ATOM    113  H   SER A   7      -8.264 -10.049   1.247  0.00  0.00    +0.211 HD
ENDBRANCH 111 112
ENDBRANCH  59 111
ENDBRANCH  57  59
ENDBRANCH   1  55
BRANCH   1 114
ATOM    114  CB  TYR A   6      -8.825 -13.677   6.478  0.00  0.00    +0.055 C 
BRANCH 114 115
ATOM    115  CG  TYR A   6      -8.315 -15.065   6.765  0.00  0.00    -0.020 A 
ATOM    116  CD2 TYR A   6      -8.559 -15.687   7.986  0.00  0.00    -0.001 A 
ATOM    117  CE2 TYR A   6      -8.088 -16.960   8.242  0.00  0.00    +0.036 A 
ATOM    118  CZ  TYR A   6      -7.354 -17.613   7.268  0.00  0.00    +0.134 A 
ATOM    119  CE1 TYR A   6      -7.103 -17.001   6.053  0.00  0.00    +0.036 A 
ATOM    120  CD1 TYR A   6      -7.590 -15.754   5.810  0.00  0.00    -0.001 A 
BRANCH 118 121
ATOM    121  OH  TYR A   6      -6.870 -18.869   7.494  0.00  0.00    -0.506 OA
ATOM    122  HH  TYR A   6      -7.624 -19.485   7.674  0.00  0.00    +0.292 HD
ENDBRANCH 118 121
ENDBRANCH 114 115
ENDBRANCH   1 114
TORSDOF 46
REMARK  Name = ../refined-set-2016/3fql/3fql_pocket.pdb
REMARK  245 active torsions:
REMARK  status: ('A' for Active; 'I' for Inactive)
REMARK    1  A    between atoms: _1  and  _3
REMARK    2  A    between atoms: _3  and  _4
REMARK    3  A    between atoms: _3  and  _6
REMARK    4  A    between atoms: _6  and  _7
REMARK    5  A    between atoms: _9  and  _11
REMARK    6  A    between atoms: _11  and  _12
REMARK    7  A    between atoms: _11  and  _14
REMARK    8  A    between atoms: _14  and  _15
REMARK    9  A    between atoms: _20  and  _21
REMARK   10  A    between atoms: _23  and  _25
REMARK   11  A    between atoms: _25  and  _26
REMARK   12  A    between atoms: _28  and  _30
REMARK   13  A    between atoms: _30  and  _31
REMARK   14  A    between atoms: _30  and  _33
REMARK   15  A    between atoms: _33  and  _34
REMARK   16  A    between atoms: _40  and  _42
REMARK   17  A    between atoms: _42  and  _43
REMARK   18  A    between atoms: _42  and  _45
REMARK   19  A    between atoms: _45  and  _46
REMARK   20  A    between atoms: _46  and  _47
REMARK   21  A    between atoms: _52  and  _54
REMARK   22  A    between atoms: _54  and  _55
REMARK   23  A    between atoms: _54  and  _57
REMARK   24  A    between atoms: _57  and  _58
REMARK   25  A    between atoms: _63  and  _64
REMARK   26  A    between atoms: _66  and  _68
REMARK   27  A    between atoms: _68  and  _69
REMARK   28  A    between atoms: _68  and  _71
REMARK   29  A    between atoms: _71  and  _72
REMARK   30  A    between atoms: _75  and  _76
REMARK   31  A    between atoms: _81  and  _83
REMARK   32  A    between atoms: _83  and  _84
REMARK   33  A    between atoms: _86  and  _88
REMARK   34  A    between atoms: _88  and  _89
REMARK   35  A    between atoms: _88  and  _91
REMARK   36  A    between atoms: _91  and  _92
REMARK   37  A    between atoms: _92  and  _93
REMARK   38  A    between atoms: _98  and  _100
REMARK   39  A    between atoms: _100  and  _101
REMARK   40  A    between atoms: _100  and  _103
REMARK   41  A    between atoms: _103  and  _104
REMARK   42  A    between atoms: _104  and  _105
REMARK   43  A    between atoms: _105  and  _106
REMARK   44  A    between atoms: _115  and  _117
REMARK   45  A    between atoms: _117  and  _118
REMARK   46  A    between atoms: _117  and  _120
REMARK   47  A    between atoms: _123  and  _125
REMARK   48  A    between atoms: _125  and  _126
REMARK   49  A    between atoms: _125  and  _128
REMARK   50  A    between atoms: _128  and  _129
REMARK   51  A    between atoms: _135  and  _137
REMARK   52  A    between atoms: _137  and  _138
REMARK   53  A    between atoms: _137  and  _140
REMARK   54  A    between atoms: _140  and  _141
REMARK   55  A    between atoms: _144  and  _146
REMARK   56  A    between atoms: _146  and  _147
REMARK   57  A    between atoms: _146  and  _149
REMARK   58  A    between atoms: _149  and  _150
REMARK   59  A    between atoms: _160  and  _162
REMARK   60  A    between atoms: _162  and  _163
REMARK   61  A    between atoms: _165  and  _167
REMARK   62  A    between atoms: _167  and  _168
REMARK   63  A    between atoms: _167  and  _170
REMARK   64  A    between atoms: _170  and  _171
REMARK   65  A    between atoms: _177  and  _179
REMARK   66  A    between atoms: _179  and  _180
REMARK   67  A    between atoms: _183  and  _185
REMARK   68  A    between atoms: _185  and  _186
REMARK   69  A    between atoms: _185  and  _188
REMARK   70  A    between atoms: _188  and  _189
REMARK   71  A    between atoms: _194  and  _195
REMARK   72  A    between atoms: _197  and  _199
REMARK   73  A    between atoms: _199  and  _200
REMARK   74  A    between atoms: _199  and  _202
REMARK   75  A    between atoms: _202  and  _203
REMARK   76  A    between atoms: _203  and  _204
REMARK   77  A    between atoms: _206  and  _208
REMARK   78  A    between atoms: _208  and  _209
REMARK   79  A    between atoms: _208  and  _211
REMARK   80  A    between atoms: _211  and  _212
REMARK   81  A    between atoms: _215  and  _217
REMARK   82  A    between atoms: _217  and  _218
REMARK   83  A    between atoms: _217  and  _220
REMARK   84  A    between atoms: _223  and  _225
REMARK   85  A    between atoms: _225  and  _226
REMARK   86  A    between atoms: _225  and  _228
REMARK   87  A    between atoms: _230  and  _232
REMARK   88  A    between atoms: _232  and  _233
REMARK   89  A    between atoms: _235  and  _237
REMARK   90  A    between atoms: _237  and  _238
REMARK   91  A    between atoms: _237  and  _240
REMARK   92  A    between atoms: _240  and  _241
REMARK   93  A    between atoms: _244  and  _246
REMARK   94  A    between atoms: _246  and  _247
REMARK   95  A    between atoms: _246  and  _249
REMARK   96  A    between atoms: _249  and  _250
REMARK   97  A    between atoms: _253  and  _255
REMARK   98  A    between atoms: _255  and  _256
REMARK   99  A    between atoms: _255  and  _258
REMARK  100  A    between atoms: _258  and  _259
REMARK  101  A    between atoms: _262  and  _264
REMARK  102  A    between atoms: _264  and  _265
REMARK  103  A    between atoms: _264  and  _267
REMARK  104  A    between atoms: _270  and  _272
REMARK  105  A    between atoms: _272  and  _273
REMARK  106  A    between atoms: _272  and  _275
REMARK  107  A    between atoms: _278  and  _280
REMARK  108  A    between atoms: _280  and  _281
REMARK  109  A    between atoms: _280  and  _283
REMARK  110  A    between atoms: _283  and  _284
REMARK  111  A    between atoms: _287  and  _289
REMARK  112  A    between atoms: _289  and  _290
REMARK  113  A    between atoms: _289  and  _292
REMARK  114  A    between atoms: _292  and  _293
REMARK  115  A    between atoms: _293  and  _294
REMARK  116  A    between atoms: _297  and  _299
REMARK  117  A    between atoms: _299  and  _300
REMARK  118  A    between atoms: _299  and  _302
REMARK  119  A    between atoms: _302  and  _303
REMARK  120  A    between atoms: _306  and  _308
REMARK  121  A    between atoms: _308  and  _309
REMARK  122  A    between atoms: _308  and  _311
REMARK  123  A    between atoms: _311  and  _312
REMARK  124  A    between atoms: _315  and  _317
REMARK  125  A    between atoms: _317  and  _318
REMARK  126  A    between atoms: _317  and  _320
REMARK  127  A    between atoms: _320  and  _321
REMARK  128  A    between atoms: _321  and  _322
REMARK  129  A    between atoms: _325  and  _327
REMARK  130  A    between atoms: _327  and  _328
REMARK  131  A    between atoms: _327  and  _330
REMARK  132  A    between atoms: _330  and  _331
REMARK  133  A    between atoms: _334  and  _336
REMARK  134  A    between atoms: _336  and  _337
REMARK  135  A    between atoms: _336  and  _339
REMARK  136  A    between atoms: _339  and  _340
REMARK  137  A    between atoms: _343  and  _345
REMARK  138  A    between atoms: _345  and  _346
REMARK  139  A    between atoms: _345  and  _348
REMARK  140  A    between atoms: _348  and  _349
REMARK  141  A    between atoms: _352  and  _354
REMARK  142  A    between atoms: _354  and  _355
REMARK  143  A    between atoms: _354  and  _357
REMARK  144  A    between atoms: _357  and  _358
REMARK  145  A    between atoms: _360  and  _362
REMARK  146  A    between atoms: _362  and  _363
REMARK  147  A    between atoms: _362  and  _365
REMARK  148  A    between atoms: _367  and  _369
REMARK  149  A    between atoms: _369  and  _370
REMARK  150  A    between atoms: _369  and  _372
REMARK  151  A    between atoms: _372  and  _373
REMARK  152  A    between atoms: _375  and  _377
REMARK  153  A    between atoms: _377  and  _378
REMARK  154  A    between atoms: _377  and  _380
REMARK  155  A    between atoms: _380  and  _381
REMARK  156  A    between atoms: _383  and  _385
REMARK  157  A    between atoms: _385  and  _386
REMARK  158  A    between atoms: _385  and  _388
REMARK  159  A    between atoms: _388  and  _389
REMARK  160  A    between atoms: _394  and  _396
REMARK  161  A    between atoms: _396  and  _397
REMARK  162  A    between atoms: _396  and  _399
REMARK  163  A    between atoms: _402  and  _404
REMARK  164  A    between atoms: _404  and  _405
REMARK  165  A    between atoms: _404  and  _407
REMARK  166  A    between atoms: _407  and  _408
REMARK  167  A    between atoms: _413  and  _414
REMARK  168  A    between atoms: _416  and  _418
REMARK  169  A    between atoms: _418  and  _419
REMARK  170  A    between atoms: _418  and  _421
REMARK  171  A    between atoms: _421  and  _422
REMARK  172  A    between atoms: _425  and  _427
REMARK  173  A    between atoms: _427  and  _428
REMARK  174  A    between atoms: _427  and  _430
REMARK  175  A    between atoms: _430  and  _431
REMARK  176  A    between atoms: _434  and  _436
REMARK  177  A    between atoms: _436  and  _437
REMARK  178  A    between atoms: _436  and  _439
REMARK  179  A    between atoms: _439  and  _440
REMARK  180  A    between atoms: _440  and  _441
REMARK  181  A    between atoms: _441  and  _442
REMARK  182  A    between atoms: _451  and  _453
REMARK  183  A    between atoms: _453  and  _454
REMARK  184  A    between atoms: _456  and  _458
REMARK  185  A    between atoms: _458  and  _459
REMARK  186  A    between atoms: _458  and  _461
REMARK  187  A    between atoms: _461  and  _462
REMARK  188  A    between atoms: _467  and  _469
REMARK  189  A    between atoms: _469  and  _470
REMARK  190  A    between atoms: _469  and  _472
REMARK  191  A    between atoms: _472  and  _473
REMARK  192  A    between atoms: _476  and  _478
REMARK  193  A    between atoms: _478  and  _479
REMARK  194  A    between atoms: _478  and  _481
REMARK  195  A    between atoms: _481  and  _482
REMARK  196  A    between atoms: _482  and  _483
REMARK  197  A    between atoms: _485  and  _487
REMARK  198  A    between atoms: _487  and  _488
REMARK  199  A    between atoms: _487  and  _490
REMARK  200  A    between atoms: _490  and  _491
REMARK  201  A    between atoms: _496  and  _497
REMARK  202  A    between atoms: _499  and  _501
REMARK  203  A    between atoms: _501  and  _502
REMARK  204  A    between atoms: _506  and  _507
REMARK  205  A    between atoms: _512  and  _514
REMARK  206  A    between atoms: _514  and  _515
REMARK  207  A    between atoms: _514  and  _517
REMARK  208  A    between atoms: _517  and  _518
REMARK  209  A    between atoms: _521  and  _523
REMARK  210  A    between atoms: _523  and  _524
REMARK  211  A    between atoms: _523  and  _526
REMARK  212  A    between atoms: _526  and  _527
REMARK  213  A    between atoms: _527  and  _528
REMARK  214  A    between atoms: _533  and  _535
REMARK  215  A    between atoms: _535  and  _536
REMARK  216  A    between atoms: _535  and  _538
REMARK  217  A    between atoms: _538  and  _539
REMARK  218  A    between atoms: _542  and  _544
REMARK  219  A    between atoms: _544  and  _545
REMARK  220  A    between atoms: _544  and  _547
REMARK  221  A    between atoms: _547  and  _548
REMARK  222  A    between atoms: _553  and  _554
REMARK  223  A    between atoms: _556  and  _558
REMARK  224  A    between atoms: _558  and  _559
REMARK  225  A    between atoms: _561  and  _563
REMARK  226  A    between atoms: _563  and  _564
REMARK  227  A    between atoms: _563  and  _566
REMARK  228  A    between atoms: _566  and  _567
REMARK  229  A    between atoms: _570  and  _572
REMARK  230  A    between atoms: _572  and  _573
REMARK  231  A    between atoms: _572  and  _575
REMARK  232  A    between atoms: _575  and  _576
REMARK  233  A    between atoms: _581  and  _583
REMARK  234  A    between atoms: _583  and  _584
REMARK  235  A    between atoms: _583  and  _586
REMARK  236  A    between atoms: _586  and  _587
REMARK  237  A    between atoms: _593  and  _595
REMARK  238  A    between atoms: _595  and  _596
REMARK  239  A    between atoms: _599  and  _601
REMARK  240  A    between atoms: _601  and  _602
REMARK  241  A    between atoms: _604  and  _606
REMARK  242  A    between atoms: _606  and  _607
REMARK  243  A    between atoms: _606  and  _609
REMARK  244  A    between atoms: _609  and  _610
REMARK  245  A    between atoms: _615  and  _616
REMARK                            x       y       z     vdW  Elec       q    Type
REMARK                         _______ _______ _______ _____ _____    ______ ____
ROOT
ATOM      1  C   PHE A   1     -12.236 -20.705   3.588  0.00  0.00    +0.239 C 
ATOM      2  N   LEU A   2     -13.355 -20.023   3.777  0.00  0.00    -0.298 N 
ATOM      3  H   LEU A   2     -13.347 -18.990   3.655  0.00  0.00    +0.150 HD
ATOM      4  O   PHE A   1     -12.184 -21.938   3.693  0.00  0.00    -0.274 OA
ENDROOT
BRANCH   1   5
ATOM      5  CA  PHE A   1     -10.984 -19.877   3.227  0.00  0.00    +0.149 C 
BRANCH   5   6
ATOM      6  N   PHE A   1     -11.257 -18.892   2.176  0.00  0.00    -0.238 NA
ATOM      7  H   PHE A   1     -11.068 -17.885   2.357  0.00  0.00    +0.142 HD
ENDBRANCH   5   6
BRANCH   5   8
ATOM      8  CB  PHE A   1     -10.438 -19.197   4.491  0.00  0.00    +0.053 C 
BRANCH   8   9
ATOM      9  CG  PHE A   1     -10.268 -20.141   5.649  0.00  0.00    -0.020 A 
ATOM     10  CD2 PHE A   1     -11.283 -20.311   6.579  0.00  0.00    -0.004 A 
ATOM     11  CE2 PHE A   1     -11.137 -21.205   7.640  0.00  0.00    -0.000 A 
ATOM     12  CZ  PHE A   1      -9.968 -21.919   7.780  0.00  0.00    -0.000 A 
ATOM     13  CE1 PHE A   1      -8.956 -21.778   6.849  0.00  0.00    -0.000 A 
ATOM     14  CD1 PHE A   1      -9.105 -20.882   5.788  0.00  0.00    -0.004 A 
ENDBRANCH   8   9
ENDBRANCH   5   8
ENDBRANCH   1   5
BRANCH   2  15
ATOM     15  CA  LEU A   2     -14.606 -20.690   4.154  0.00  0.00    +0.137 C 
BRANCH  15  16
ATOM     16  C   LEU A   2     -15.144 -21.616   3.064  0.00  0.00    +0.227 C 
ATOM     17  O   LEU A   2     -15.537 -22.752   3.335  0.00  0.00    -0.286 OA
ENDBRANCH  15  16
BRANCH  15  18
ATOM     18  CB  LEU A   2     -15.682 -19.652   4.503  0.00  0.00    +0.028 C 
BRANCH  18  19
ATOM     19  CG  LEU A   2     -15.495 -18.881   5.794  0.00  0.00    +0.002 C 
ATOM     20  CD2 LEU A   2     -15.635 -19.837   6.980  0.00  0.00    +0.000 C 
ATOM     21  CD1 LEU A   2     -16.503 -17.737   5.872  0.00  0.00    +0.000 C 
ENDBRANCH  18  19
ENDBRANCH  15  18
ENDBRANCH   2  15
TORSDOF 8
REMARK  Name = ../refined-set-2016/3fql/3fql_pocket.pdb
REMARK  245 active torsions:
REMARK  status: ('A' for Active; 'I' for Inactive)
REMARK    1  A    between atoms: _1  and  _3
REMARK    2  A    between atoms: _3  and  _4
REMARK    3  A    between atoms: _3  and  _6
REMARK    4  A    between atoms: _6  and  _7
REMARK    5  A    between atoms: _9  and  _11
REMARK    6  A    between atoms: _11  and  _12
REMARK    7  A    between atoms: _11  and  _14
REMARK    8  A    between atoms: _14  and  _15
REMARK    9  A    between atoms: _20  and  _21
REMARK   10  A    between atoms: _23  and  _25
REMARK   11  A    between atoms: _25  and  _26
REMARK   12  A    between atoms: _28  and  _30
REMARK   13  A    between atoms: _30  and  _31
REMARK   14  A    between atoms: _30  and  _33
REMARK   15  A    between atoms: _33  and  _34
REMARK   16  A    between atoms: _40  and  _42
REMARK   17  A    between atoms: _42  and  _43
REMARK   18  A    between atoms: _42  and  _45
REMARK   19  A    between atoms: _45  and  _46
REMARK   20  A    between atoms: _46  and  _47
REMARK   21  A    between atoms: _52  and  _54
REMARK   22  A    between atoms: _54  and  _55
REMARK   23  A    between atoms: _54  and  _57
REMARK   24  A    between atoms: _57  and  _58
REMARK   25  A    between atoms: _63  and  _64
REMARK   26  A    between atoms: _66  and  _68
REMARK   27  A    between atoms: _68  and  _69
REMARK   28  A    between atoms: _68  and  _71
REMARK   29  A    between atoms: _71  and  _72
REMARK   30  A    between atoms: _75  and  _76
REMARK   31  A    between atoms: _81  and  _83
REMARK   32  A    between atoms: _83  and  _84
REMARK   33  A    between atoms: _86  and  _88
REMARK   34  A    between atoms: _88  and  _89
REMARK   35  A    between atoms: _88  and  _91
REMARK   36  A    between atoms: _91  and  _92
REMARK   37  A    between atoms: _92  and  _93
REMARK   38  A    between atoms: _98  and  _100
REMARK   39  A    between atoms: _100  and  _101
REMARK   40  A    between atoms: _100  and  _103
REMARK   41  A    between atoms: _103  and  _104
REMARK   42  A    between atoms: _104  and  _105
REMARK   43  A    between atoms: _105  and  _106
REMARK   44  A    between atoms: _115  and  _117
REMARK   45  A    between atoms: _117  and  _118
REMARK   46  A    between atoms: _117  and  _120
REMARK   47  A    between atoms: _123  and  _125
REMARK   48  A    between atoms: _125  and  _126
REMARK   49  A    between atoms: _125  and  _128
REMARK   50  A    between atoms: _128  and  _129
REMARK   51  A    between atoms: _135  and  _137
REMARK   52  A    between atoms: _137  and  _138
REMARK   53  A    between atoms: _137  and  _140
REMARK   54  A    between atoms: _140  and  _141
REMARK   55  A    between atoms: _144  and  _146
REMARK   56  A    between atoms: _146  and  _147
REMARK   57  A    between atoms: _146  and  _149
REMARK   58  A    between atoms: _149  and  _150
REMARK   59  A    between atoms: _160  and  _162
REMARK   60  A    between atoms: _162  and  _163
REMARK   61  A    between atoms: _165  and  _167
REMARK   62  A    between atoms: _167  and  _168
REMARK   63  A    between atoms: _167  and  _170
REMARK   64  A    between atoms: _170  and  _171
REMARK   65  A    between atoms: _177  and  _179
REMARK   66  A    between atoms: _179  and  _180
REMARK   67  A    between atoms: _183  and  _185
REMARK   68  A    between atoms: _185  and  _186
REMARK   69  A    between atoms: _185  and  _188
REMARK   70  A    between atoms: _188  and  _189
REMARK   71  A    between atoms: _194  and  _195
REMARK   72  A    between atoms: _197  and  _199
REMARK   73  A    between atoms: _199  and  _200
REMARK   74  A    between atoms: _199  and  _202
REMARK   75  A    between atoms: _202  and  _203
REMARK   76  A    between atoms: _203  and  _204
REMARK   77  A    between atoms: _206  and  _208
REMARK   78  A    between atoms: _208  and  _209
REMARK   79  A    between atoms: _208  and  _211
REMARK   80  A    between atoms: _211  and  _212
REMARK   81  A    between atoms: _215  and  _217
REMARK   82  A    between atoms: _217  and  _218
REMARK   83  A    between atoms: _217  and  _220
REMARK   84  A    between atoms: _223  and  _225
REMARK   85  A    between atoms: _225  and  _226
REMARK   86  A    between atoms: _225  and  _228
REMARK   87  A    between atoms: _230  and  _232
REMARK   88  A    between atoms: _232  and  _233
REMARK   89  A    between atoms: _235  and  _237
REMARK   90  A    between atoms: _237  and  _238
REMARK   91  A    between atoms: _237  and  _240
REMARK   92  A    between atoms: _240  and  _241
REMARK   93  A    between atoms: _244  and  _246
REMARK   94  A    between atoms: _246  and  _247
REMARK   95  A    between atoms: _246  and  _249
REMARK   96  A    between atoms: _249  and  _250
REMARK   97  A    between atoms: _253  and  _255
REMARK   98  A    between atoms: _255  and  _256
REMARK   99  A    between atoms: _255  and  _258
REMARK  100  A    between atoms: _258  and  _259
REMARK  101  A    between atoms: _262  and  _264
REMARK  102  A    between atoms: _264  and  _265
REMARK  103  A    between atoms: _264  and  _267
REMARK  104  A    between atoms: _270  and  _272
REMARK  105  A    between atoms: _272  and  _273
REMARK  106  A    between atoms: _272  and  _275
REMARK  107  A    between atoms: _278  and  _280
REMARK  108  A    between atoms: _280  and  _281
REMARK  109  A    between atoms: _280  and  _283
REMARK  110  A    between atoms: _283  and  _284
REMARK  111  A    between atoms: _287  and  _289
REMARK  112  A    between atoms: _289  and  _290
REMARK  113  A    between atoms: _289  and  _292
REMARK  114  A    between atoms: _292  and  _293
REMARK  115  A    between atoms: _293  and  _294
REMARK  116  A    between atoms: _297  and  _299
REMARK  117  A    between atoms: _299  and  _300
REMARK  118  A    between atoms: _299  and  _302
REMARK  119  A    between atoms: _302  and  _303
REMARK  120  A    between atoms: _306  and  _308
REMARK  121  A    between atoms: _308  and  _309
REMARK  122  A    between atoms: _308  and  _311
REMARK  123  A    between atoms: _311  and  _312
REMARK  124  A    between atoms: _315  and  _317
REMARK  125  A    between atoms: _317  and  _318
REMARK  126  A    between atoms: _317  and  _320
REMARK  127  A    between atoms: _320  and  _321
REMARK  128  A    between atoms: _321  and  _322
REMARK  129  A    between atoms: _325  and  _327
REMARK  130  A    between atoms: _327  and  _328
REMARK  131  A    between atoms: _327  and  _330
REMARK  132  A    between atoms: _330  and  _331
REMARK  133  A    between atoms: _334  and  _336
REMARK  134  A    between atoms: _336  and  _337
REMARK  135  A    between atoms: _336  and  _339
REMARK  136  A    between atoms: _339  and  _340
REMARK  137  A    between atoms: _343  and  _345
REMARK  138  A    between atoms: _345  and  _346
REMARK  139  A    between atoms: _345  and  _348
REMARK  140  A    between atoms: _348  and  _349
REMARK  141  A    between atoms: _352  and  _354
REMARK  142  A    between atoms: _354  and  _355
REMARK  143  A    between atoms: _354  and  _357
REMARK  144  A    between atoms: _357  and  _358
REMARK  145  A    between atoms: _360  and  _362
REMARK  146  A    between atoms: _362  and  _363
REMARK  147  A    between atoms: _362  and  _365
REMARK  148  A    between atoms: _367  and  _369
REMARK  149  A    between atoms: _369  and  _370
REMARK  150  A    between atoms: _369  and  _372
REMARK  151  A    between atoms: _372  and  _373
REMARK  152  A    between atoms: _375  and  _377
REMARK  153  A    between atoms: _377  and  _378
REMARK  154  A    between atoms: _377  and  _380
REMARK  155  A    between atoms: _380  and  _381
REMARK  156  A    between atoms: _383  and  _385
REMARK  157  A    between atoms: _385  and  _386
REMARK  158  A    between atoms: _385  and  _388
REMARK  159  A    between atoms: _388  and  _389
REMARK  160  A    between atoms: _394  and  _396
REMARK  161  A    between atoms: _396  and  _397
REMARK  162  A    between atoms: _396  and  _399
REMARK  163  A    between atoms: _402  and  _404
REMARK  164  A    between atoms: _404  and  _405
REMARK  165  A    between atoms: _404  and  _407
REMARK  166  A    between atoms: _407  and  _408
REMARK  167  A    between atoms: _413  and  _414
REMARK  168  A    between atoms: _416  and  _418
REMARK  169  A    between atoms: _418  and  _419
REMARK  170  A    between atoms: _418  and  _421
REMARK  171  A    between atoms: _421  and  _422
REMARK  172  A    between atoms: _425  and  _427
REMARK  173  A    between atoms: _427  and  _428
REMARK  174  A    between atoms: _427  and  _430
REMARK  175  A    between atoms: _430  and  _431
REMARK  176  A    between atoms: _434  and  _436
REMARK  177  A    between atoms: _436  and  _437
REMARK  178  A    between atoms: _436  and  _439
REMARK  179  A    between atoms: _439  and  _440
REMARK  180  A    between atoms: _440  and  _441
REMARK  181  A    between atoms: _441  and  _442
REMARK  182  A    between atoms: _451  and  _453
REMARK  183  A    between atoms: _453  and  _454
REMARK  184  A    between atoms: _456  and  _458
REMARK  185  A    between atoms: _458  and  _459
REMARK  186  A    between atoms: _458  and  _461
REMARK  187  A    between atoms: _461  and  _462
REMARK  188  A    between atoms: _467  and  _469
REMARK  189  A    between atoms: _469  and  _470
REMARK  190  A    between atoms: _469  and  _472
REMARK  191  A    between atoms: _472  and  _473
REMARK  192  A    between atoms: _476  and  _478
REMARK  193  A    between atoms: _478  and  _479
REMARK  194  A    between atoms: _478  and  _481
REMARK  195  A    between atoms: _481  and  _482
REMARK  196  A    between atoms: _482  and  _483
REMARK  197  A    between atoms: _485  and  _487
REMARK  198  A    between atoms: _487  and  _488
REMARK  199  A    between atoms: _487  and  _490
REMARK  200  A    between atoms: _490  and  _491
REMARK  201  A    between atoms: _496  and  _497
REMARK  202  A    between atoms: _499  and  _501
REMARK  203  A    between atoms: _501  and  _502
REMARK  204  A    between atoms: _506  and  _507
REMARK  205  A    between atoms: _512  and  _514
REMARK  206  A    between atoms: _514  and  _515
REMARK  207  A    between atoms: _514  and  _517
REMARK  208  A    between atoms: _517  and  _518
REMARK  209  A    between atoms: _521  and  _523
REMARK  210  A    between atoms: _523  and  _524
REMARK  211  A    between atoms: _523  and  _526
REMARK  212  A    between atoms: _526  and  _527
REMARK  213  A    between atoms: _527  and  _528
REMARK  214  A    between atoms: _533  and  _535
REMARK  215  A    between atoms: _535  and  _536
REMARK  216  A    between atoms: _535  and  _538
REMARK  217  A    between atoms: _538  and  _539
REMARK  218  A    between atoms: _542  and  _544
REMARK  219  A    between atoms: _544  and  _545
REMARK  220  A    between atoms: _544  and  _547
REMARK  221  A    between atoms: _547  and  _548
REMARK  222  A    between atoms: _553  and  _554
REMARK  223  A    between atoms: _556  and  _558
REMARK  224  A    between atoms: _558  and  _559
REMARK  225  A    between atoms: _561  and  _563
REMARK  226  A    between atoms: _563  and  _564
REMARK  227  A    between atoms: _563  and  _566
REMARK  228  A    between atoms: _566  and  _567
REMARK  229  A    between atoms: _570  and  _572
REMARK  230  A    between atoms: _572  and  _573
REMARK  231  A    between atoms: _572  and  _575
REMARK  232  A    between atoms: _575  and  _576
REMARK  233  A    between atoms: _581  and  _583
REMARK  234  A    between atoms: _583  and  _584
REMARK  235  A    between atoms: _583  and  _586
REMARK  236  A    between atoms: _586  and  _587
REMARK  237  A    between atoms: _593  and  _595
REMARK  238  A    between atoms: _595  and  _596
REMARK  239  A    between atoms: _599  and  _601
REMARK  240  A    between atoms: _601  and  _602
REMARK  241  A    between atoms: _604  and  _606
REMARK  242  A    between atoms: _606  and  _607
REMARK  243  A    between atoms: _606  and  _609
REMARK  244  A    between atoms: _609  and  _610
REMARK  245  A    between atoms: _615  and  _616
REMARK                            x       y       z     vdW  Elec       q    Type
REMARK                         _______ _______ _______ _____ _____    ______ ____
ROOT
ATOM      1  CG  TRP A   1     -19.200 -25.687   2.819  0.00  0.00    -0.002 A 
ATOM      2  CD2 TRP A   1     -20.020 -25.928   3.955  0.00  0.00    +0.013 A 
ATOM      3  CE3 TRP A   1     -19.839 -25.765   5.335  0.00  0.00    +0.001 A 
ATOM      4  CZ3 TRP A   1     -20.885 -26.110   6.186  0.00  0.00    +0.000 A 
ATOM      5  CH2 TRP A   1     -22.089 -26.611   5.678  0.00  0.00    +0.001 A 
ATOM      6  CZ2 TRP A   1     -22.291 -26.781   4.329  0.00  0.00    +0.017 A 
ATOM      7  CE2 TRP A   1     -21.256 -26.429   3.479  0.00  0.00    +0.056 A 
ATOM      8  NE1 TRP A   1     -21.169 -26.500   2.114  0.00  0.00    -0.352 N 
ATOM      9  HE1 TRP A   1     -21.915 -26.843   1.475  0.00  0.00    +0.166 HD
ATOM     10  CD1 TRP A   1     -19.931 -26.042   1.729  0.00  0.00    +0.068 A 
ENDROOT
BRANCH   1  11
ATOM     11  CB  TRP A   1     -17.825 -25.160   2.834  0.00  0.00    +0.053 C 
BRANCH  11  12
ATOM     12  CA  TRP A   1     -16.779 -26.217   3.187  0.00  0.00    +0.137 C 
BRANCH  12  13
ATOM     13  N   TRP A   1     -15.476 -25.579   3.396  0.00  0.00    -0.239 NA
ATOM     14  H   TRP A   1     -15.377 -24.559   3.216  0.00  0.00    +0.142 HD
ENDBRANCH  12  13
BRANCH  12  15
ATOM     15  C   TRP A   1     -16.700 -27.239   2.056  0.00  0.00    +0.224 C 
ATOM     16  O   TRP A   1     -17.082 -28.403   2.222  0.00  0.00    -0.287 OA
ENDBRANCH  12  15
ENDBRANCH  11  12
ENDBRANCH   1  11
TORSDOF 4
REMARK  Name = ../refined-set-2016/3fql/3fql_pocket.pdb
REMARK  245 active torsions:
REMARK  status: ('A' for Active; 'I' for Inactive)
REMARK    1  A    between atoms: _1  and  _3
REMARK    2  A    between atoms: _3  and  _4
REMARK    3  A    between atoms: _3  and  _6
REMARK    4  A    between atoms: _6  and  _7
REMARK    5  A    between atoms: _9  and  _11
REMARK    6  A    between atoms: _11  and  _12
REMARK    7  A    between atoms: _11  and  _14
REMARK    8  A    between atoms: _14  and  _15
REMARK    9  A    between atoms: _20  and  _21
REMARK   10  A    between atoms: _23  and  _25
REMARK   11  A    between atoms: _25  and  _26
REMARK   12  A    between atoms: _28  and  _30
REMARK   13  A    between atoms: _30  and  _31
REMARK   14  A    between atoms: _30  and  _33
REMARK   15  A    between atoms: _33  and  _34
REMARK   16  A    between atoms: _40  and  _42
REMARK   17  A    between atoms: _42  and  _43
REMARK   18  A    between atoms: _42  and  _45
REMARK   19  A    between atoms: _45  and  _46
REMARK   20  A    between atoms: _46  and  _47
REMARK   21  A    between atoms: _52  and  _54
REMARK   22  A    between atoms: _54  and  _55
REMARK   23  A    between atoms: _54  and  _57
REMARK   24  A    between atoms: _57  and  _58
REMARK   25  A    between atoms: _63  and  _64
REMARK   26  A    between atoms: _66  and  _68
REMARK   27  A    between atoms: _68  and  _69
REMARK   28  A    between atoms: _68  and  _71
REMARK   29  A    between atoms: _71  and  _72
REMARK   30  A    between atoms: _75  and  _76
REMARK   31  A    between atoms: _81  and  _83
REMARK   32  A    between atoms: _83  and  _84
REMARK   33  A    between atoms: _86  and  _88
REMARK   34  A    between atoms: _88  and  _89
REMARK   35  A    between atoms: _88  and  _91
REMARK   36  A    between atoms: _91  and  _92
REMARK   37  A    between atoms: _92  and  _93
REMARK   38  A    between atoms: _98  and  _100
REMARK   39  A    between atoms: _100  and  _101
REMARK   40  A    between atoms: _100  and  _103
REMARK   41  A    between atoms: _103  and  _104
REMARK   42  A    between atoms: _104  and  _105
REMARK   43  A    between atoms: _105  and  _106
REMARK   44  A    between atoms: _115  and  _117
REMARK   45  A    between atoms: _117  and  _118
REMARK   46  A    between atoms: _117  and  _120
REMARK   47  A    between atoms: _123  and  _125
REMARK   48  A    between atoms: _125  and  _126
REMARK   49  A    between atoms: _125  and  _128
REMARK   50  A    between atoms: _128  and  _129
REMARK   51  A    between atoms: _135  and  _137
REMARK   52  A    between atoms: _137  and  _138
REMARK   53  A    between atoms: _137  and  _140
REMARK   54  A    between atoms: _140  and  _141
REMARK   55  A    between atoms: _144  and  _146
REMARK   56  A    between atoms: _146  and  _147
REMARK   57  A    between atoms: _146  and  _149
REMARK   58  A    between atoms: _149  and  _150
REMARK   59  A    between atoms: _160  and  _162
REMARK   60  A    between atoms: _162  and  _163
REMARK   61  A    between atoms: _165  and  _167
REMARK   62  A    between atoms: _167  and  _168
REMARK   63  A    between atoms: _167  and  _170
REMARK   64  A    between atoms: _170  and  _171
REMARK   65  A    between atoms: _177  and  _179
REMARK   66  A    between atoms: _179  and  _180
REMARK   67  A    between atoms: _183  and  _185
REMARK   68  A    between atoms: _185  and  _186
REMARK   69  A    between atoms: _185  and  _188
REMARK   70  A    between atoms: _188  and  _189
REMARK   71  A    between atoms: _194  and  _195
REMARK   72  A    between atoms: _197  and  _199
REMARK   73  A    between atoms: _199  and  _200
REMARK   74  A    between atoms: _199  and  _202
REMARK   75  A    between atoms: _202  and  _203
REMARK   76  A    between atoms: _203  and  _204
REMARK   77  A    between atoms: _206  and  _208
REMARK   78  A    between atoms: _208  and  _209
REMARK   79  A    between atoms: _208  and  _211
REMARK   80  A    between atoms: _211  and  _212
REMARK   81  A    between atoms: _215  and  _217
REMARK   82  A    between atoms: _217  and  _218
REMARK   83  A    between atoms: _217  and  _220
REMARK   84  A    between atoms: _223  and  _225
REMARK   85  A    between atoms: _225  and  _226
REMARK   86  A    between atoms: _225  and  _228
REMARK   87  A    between atoms: _230  and  _232
REMARK   88  A    between atoms: _232  and  _233
REMARK   89  A    between atoms: _235  and  _237
REMARK   90  A    between atoms: _237  and  _238
REMARK   91  A    between atoms: _237  and  _240
REMARK   92  A    between atoms: _240  and  _241
REMARK   93  A    between atoms: _244  and  _246
REMARK   94  A    between atoms: _246  and  _247
REMARK   95  A    between atoms: _246  and  _249
REMARK   96  A    between atoms: _249  and  _250
REMARK   97  A    between atoms: _253  and  _255
REMARK   98  A    between atoms: _255  and  _256
REMARK   99  A    between atoms: _255  and  _258
REMARK  100  A    between atoms: _258  and  _259
REMARK  101  A    between atoms: _262  and  _264
REMARK  102  A    between atoms: _264  and  _265
REMARK  103  A    between atoms: _264  and  _267
REMARK  104  A    between atoms: _270  and  _272
REMARK  105  A    between atoms: _272  and  _273
REMARK  106  A    between atoms: _272  and  _275
REMARK  107  A    between atoms: _278  and  _280
REMARK  108  A    between atoms: _280  and  _281
REMARK  109  A    between atoms: _280  and  _283
REMARK  110  A    between atoms: _283  and  _284
REMARK  111  A    between atoms: _287  and  _289
REMARK  112  A    between atoms: _289  and  _290
REMARK  113  A    between atoms: _289  and  _292
REMARK  114  A    between atoms: _292  and  _293
REMARK  115  A    between atoms: _293  and  _294
REMARK  116  A    between atoms: _297  and  _299
REMARK  117  A    between atoms: _299  and  _300
REMARK  118  A    between atoms: _299  and  _302
REMARK  119  A    between atoms: _302  and  _303
REMARK  120  A    between atoms: _306  and  _308
REMARK  121  A    between atoms: _308  and  _309
REMARK  122  A    between atoms: _308  and  _311
REMARK  123  A    between atoms: _311  and  _312
REMARK  124  A    between atoms: _315  and  _317
REMARK  125  A    between atoms: _317  and  _318
REMARK  126  A    between atoms: _317  and  _320
REMARK  127  A    between atoms: _320  and  _321
REMARK  128  A    between atoms: _321  and  _322
REMARK  129  A    between atoms: _325  and  _327
REMARK  130  A    between atoms: _327  and  _328
REMARK  131  A    between atoms: _327  and  _330
REMARK  132  A    between atoms: _330  and  _331
REMARK  133  A    between atoms: _334  and  _336
REMARK  134  A    between atoms: _336  and  _337
REMARK  135  A    between atoms: _336  and  _339
REMARK  136  A    between atoms: _339  and  _340
REMARK  137  A    between atoms: _343  and  _345
REMARK  138  A    between atoms: _345  and  _346
REMARK  139  A    between atoms: _345  and  _348
REMARK  140  A    between atoms: _348  and  _349
REMARK  141  A    between atoms: _352  and  _354
REMARK  142  A    between atoms: _354  and  _355
REMARK  143  A    between atoms: _354  and  _357
REMARK  144  A    between atoms: _357  and  _358
REMARK  145  A    between atoms: _360  and  _362
REMARK  146  A    between atoms: _362  and  _363
REMARK  147  A    between atoms: _362  and  _365
REMARK  148  A    between atoms: _367  and  _369
REMARK  149  A    between atoms: _369  and  _370
REMARK  150  A    between atoms: _369  and  _372
REMARK  151  A    between atoms: _372  and  _373
REMARK  152  A    between atoms: _375  and  _377
REMARK  153  A    between atoms: _377  and  _378
REMARK  154  A    between atoms: _377  and  _380
REMARK  155  A    between atoms: _380  and  _381
REMARK  156  A    between atoms: _383  and  _385
REMARK  157  A    between atoms: _385  and  _386
REMARK  158  A    between atoms: _385  and  _388
REMARK  159  A    between atoms: _388  and  _389
REMARK  160  A    between atoms: _394  and  _396
REMARK  161  A    between atoms: _396  and  _397
REMARK  162  A    between atoms: _396  and  _399
REMARK  163  A    between atoms: _402  and  _404
REMARK  164  A    between atoms: _404  and  _405
REMARK  165  A    between atoms: _404  and  _407
REMARK  166  A    between atoms: _407  and  _408
REMARK  167  A    between atoms: _413  and  _414
REMARK  168  A    between atoms: _416  and  _418
REMARK  169  A    between atoms: _418  and  _419
REMARK  170  A    between atoms: _418  and  _421
REMARK  171  A    between atoms: _421  and  _422
REMARK  172  A    between atoms: _425  and  _427
REMARK  173  A    between atoms: _427  and  _428
REMARK  174  A    between atoms: _427  and  _430
REMARK  175  A    between atoms: _430  and  _431
REMARK  176  A    between atoms: _434  and  _436
REMARK  177  A    between atoms: _436  and  _437
REMARK  178  A    between atoms: _436  and  _439
REMARK  179  A    between atoms: _439  and  _440
REMARK  180  A    between atoms: _440  and  _441
REMARK  181  A    between atoms: _441  and  _442
REMARK  182  A    between atoms: _451  and  _453
REMARK  183  A    between atoms: _453  and  _454
REMARK  184  A    between atoms: _456  and  _458
REMARK  185  A    between atoms: _458  and  _459
REMARK  186  A    between atoms: _458  and  _461
REMARK  187  A    between atoms: _461  and  _462
REMARK  188  A    between atoms: _467  and  _469
REMARK  189  A    between atoms: _469  and  _470
REMARK  190  A    between atoms: _469  and  _472
REMARK  191  A    between atoms: _472  and  _473
REMARK  192  A    between atoms: _476  and  _478
REMARK  193  A    between atoms: _478  and  _479
REMARK  194  A    between atoms: _478  and  _481
REMARK  195  A    between atoms: _481  and  _482
REMARK  196  A    between atoms: _482  and  _483
REMARK  197  A    between atoms: _485  and  _487
REMARK  198  A    between atoms: _487  and  _488
REMARK  199  A    between atoms: _487  and  _490
REMARK  200  A    between atoms: _490  and  _491
REMARK  201  A    between atoms: _496  and  _497
REMARK  202  A    between atoms: _499  and  _501
REMARK  203  A    between atoms: _501  and  _502
REMARK  204  A    between atoms: _506  and  _507
REMARK  205  A    between atoms: _512  and  _514
REMARK  206  A    between atoms: _514  and  _515
REMARK  207  A    between atoms: _514  and  _517
REMARK  208  A    between atoms: _517  and  _518
REMARK  209  A    between atoms: _521  and  _523
REMARK  210  A    between atoms: _523  and  _524
REMARK  211  A    between atoms: _523  and  _526
REMARK  212  A    between atoms: _526  and  _527
REMARK  213  A    between atoms: _527  and  _528
REMARK  214  A    between atoms: _533  and  _535
REMARK  215  A    between atoms: _535  and  _536
REMARK  216  A    between atoms: _535  and  _538
REMARK  217  A    between atoms: _538  and  _539
REMARK  218  A    between atoms: _542  and  _544
REMARK  219  A    between atoms: _544  and  _545
REMARK  220  A    between atoms: _544  and  _547
REMARK  221  A    between atoms: _547  and  _548
REMARK  222  A    between atoms: _553  and  _554
REMARK  223  A    between atoms: _556  and  _558
REMARK  224  A    between atoms: _558  and  _559
REMARK  225  A    between atoms: _561  and  _563
REMARK  226  A    between atoms: _563  and  _564
REMARK  227  A    between atoms: _563  and  _566
REMARK  228  A    between atoms: _566  and  _567
REMARK  229  A    between atoms: _570  and  _572
REMARK  230  A    between atoms: _572  and  _573
REMARK  231  A    between atoms: _572  and  _575
REMARK  232  A    between atoms: _575  and  _576
REMARK  233  A    between atoms: _581  and  _583
REMARK  234  A    between atoms: _583  and  _584
REMARK  235  A    between atoms: _583  and  _586
REMARK  236  A    between atoms: _586  and  _587
REMARK  237  A    between atoms: _593  and  _595
REMARK  238  A    between atoms: _595  and  _596
REMARK  239  A    between atoms: _599  and  _601
REMARK  240  A    between atoms: _601  and  _602
REMARK  241  A    between atoms: _604  and  _606
REMARK  242  A    between atoms: _606  and  _607
REMARK  243  A    between atoms: _606  and  _609
REMARK  244  A    between atoms: _609  and  _610
REMARK  245  A    between atoms: _615  and  _616
REMARK                            x       y       z     vdW  Elec       q    Type
REMARK                         _______ _______ _______ _____ _____    ______ ____
ROOT
ATOM      1  C   PHE A   2     -21.490 -23.207  13.725  0.00  0.00    +0.241 C 
ATOM      2  N   ALA A   3     -22.210 -22.153  14.075  0.00  0.00    -0.297 N 
ATOM      3  H   ALA A   3     -23.208 -22.113  13.784  0.00  0.00    +0.150 HD
ATOM      4  O   PHE A   2     -20.266 -23.258  13.776  0.00  0.00    -0.273 OA
ENDROOT
BRANCH   2   5
ATOM      5  CA  ALA A   3     -21.667 -21.050  14.848  0.00  0.00    +0.149 C 
ATOM      6  CB  ALA A   3     -22.312 -19.756  14.418  0.00  0.00    +0.031 C 
BRANCH   5   7
ATOM      7  C   ALA A   3     -21.958 -21.344  16.325  0.00  0.00    +0.241 C 
ATOM      8  N   TYR A   4     -21.000 -21.052  17.197  0.00  0.00    -0.298 N 
ATOM      9  H   TYR A   4     -20.087 -20.695  16.850  0.00  0.00    +0.150 HD
ATOM     10  O   ALA A   3     -23.036 -21.830  16.672  0.00  0.00    -0.273 OA
BRANCH   8  11
ATOM     11  CA  TYR A   4     -21.201 -21.222  18.634  0.00  0.00    +0.141 C 
BRANCH  11  12
ATOM     12  C   TYR A   4     -21.232 -19.855  19.305  0.00  0.00    +0.227 C 
ATOM     13  O   TYR A   4     -20.247 -19.124  19.277  0.00  0.00    -0.286 OA
ENDBRANCH  11  12
BRANCH  11  14
ATOM     14  CB  TYR A   4     -20.110 -22.101  19.259  0.00  0.00    +0.054 C 
BRANCH  14  15
ATOM     15  CG  TYR A   4     -20.432 -22.466  20.694  0.00  0.00    -0.020 A 
ATOM     16  CD2 TYR A   4     -19.912 -21.727  21.762  0.00  0.00    -0.001 A 
ATOM     17  CE2 TYR A   4     -20.230 -22.048  23.078  0.00  0.00    +0.036 A 
ATOM     18  CZ  TYR A   4     -21.060 -23.126  23.331  0.00  0.00    +0.134 A 
ATOM     19  CE1 TYR A   4     -21.584 -23.865  22.284  0.00  0.00    +0.036 A 
ATOM     20  CD1 TYR A   4     -21.271 -23.535  20.984  0.00  0.00    -0.001 A 
BRANCH  18  21
ATOM     21  OH  TYR A   4     -21.390 -23.459  24.624  0.00  0.00    -0.506 OA
ATOM     22  HH  TYR A   4     -20.566 -23.670  25.130  0.00  0.00    +0.292 HD
ENDBRANCH  18  21
ENDBRANCH  14  15
ENDBRANCH  11  14
ENDBRANCH   8  11
ENDBRANCH   5   7
ENDBRANCH   2   5
BRANCH   1  23
ATOM     23  CA  PHE A   2     -22.285 -24.368  13.173  0.00  0.00    +0.153 C 
BRANCH  23  25
ATOM     24  C   GLY A   1     -22.069 -25.771  11.223  0.00  0.00    +0.240 C 
ATOM     25  N   PHE A   2     -21.494 -25.073  12.200  0.00  0.00    -0.297 N 
ATOM     26  H   PHE A   2     -20.456 -25.037  12.261  0.00  0.00    +0.150 HD
ATOM     27  O   GLY A   1     -23.297 -25.925  11.128  0.00  0.00    -0.274 OA
BRANCH  24  28
ATOM     28  CA  GLY A   1     -21.128 -26.369  10.205  0.00  0.00    +0.169 C 
BRANCH  28  29
ATOM     29  N   GLY A   1     -21.712 -27.546   9.559  0.00  0.00    -0.236 NA
ATOM     30  H   GLY A   1     -22.723 -27.536   9.315  0.00  0.00    +0.142 HD
ENDBRANCH  28  29
ENDBRANCH  24  28
ENDBRANCH  23  25
BRANCH  23  31
ATOM     31  CB  PHE A   2     -22.752 -25.288  14.308  0.00  0.00    +0.055 C 
BRANCH  31  32
ATOM     32  CG  PHE A   2     -21.635 -25.864  15.143  0.00  0.00    -0.020 A 
ATOM     33  CD2 PHE A   2     -21.256 -25.257  16.338  0.00  0.00    -0.004 A 
ATOM     34  CE2 PHE A   2     -20.233 -25.804  17.116  0.00  0.00    -0.000 A 
ATOM     35  CZ  PHE A   2     -19.590 -26.968  16.719  0.00  0.00    -0.000 A 
ATOM     36  CE1 PHE A   2     -19.964 -27.597  15.536  0.00  0.00    -0.000 A 
ATOM     37  CD1 PHE A   2     -20.986 -27.039  14.754  0.00  0.00    -0.004 A 
ENDBRANCH  31  32
ENDBRANCH  23  31
ENDBRANCH   1  23
TORSDOF 13
REMARK  Name = ../refined-set-2016/3fql/3fql_pocket.pdb
REMARK  245 active torsions:
REMARK  status: ('A' for Active; 'I' for Inactive)
REMARK    1  A    between atoms: _1  and  _3
REMARK    2  A    between atoms: _3  and  _4
REMARK    3  A    between atoms: _3  and  _6
REMARK    4  A    between atoms: _6  and  _7
REMARK    5  A    between atoms: _9  and  _11
REMARK    6  A    between atoms: _11  and  _12
REMARK    7  A    between atoms: _11  and  _14
REMARK    8  A    between atoms: _14  and  _15
REMARK    9  A    between atoms: _20  and  _21
REMARK   10  A    between atoms: _23  and  _25
REMARK   11  A    between atoms: _25  and  _26
REMARK   12  A    between atoms: _28  and  _30
REMARK   13  A    between atoms: _30  and  _31
REMARK   14  A    between atoms: _30  and  _33
REMARK   15  A    between atoms: _33  and  _34
REMARK   16  A    between atoms: _40  and  _42
REMARK   17  A    between atoms: _42  and  _43
REMARK   18  A    between atoms: _42  and  _45
REMARK   19  A    between atoms: _45  and  _46
REMARK   20  A    between atoms: _46  and  _47
REMARK   21  A    between atoms: _52  and  _54
REMARK   22  A    between atoms: _54  and  _55
REMARK   23  A    between atoms: _54  and  _57
REMARK   24  A    between atoms: _57  and  _58
REMARK   25  A    between atoms: _63  and  _64
REMARK   26  A    between atoms: _66  and  _68
REMARK   27  A    between atoms: _68  and  _69
REMARK   28  A    between atoms: _68  and  _71
REMARK   29  A    between atoms: _71  and  _72
REMARK   30  A    between atoms: _75  and  _76
REMARK   31  A    between atoms: _81  and  _83
REMARK   32  A    between atoms: _83  and  _84
REMARK   33  A    between atoms: _86  and  _88
REMARK   34  A    between atoms: _88  and  _89
REMARK   35  A    between atoms: _88  and  _91
REMARK   36  A    between atoms: _91  and  _92
REMARK   37  A    between atoms: _92  and  _93
REMARK   38  A    between atoms: _98  and  _100
REMARK   39  A    between atoms: _100  and  _101
REMARK   40  A    between atoms: _100  and  _103
REMARK   41  A    between atoms: _103  and  _104
REMARK   42  A    between atoms: _104  and  _105
REMARK   43  A    between atoms: _105  and  _106
REMARK   44  A    between atoms: _115  and  _117
REMARK   45  A    between atoms: _117  and  _118
REMARK   46  A    between atoms: _117  and  _120
REMARK   47  A    between atoms: _123  and  _125
REMARK   48  A    between atoms: _125  and  _126
REMARK   49  A    between atoms: _125  and  _128
REMARK   50  A    between atoms: _128  and  _129
REMARK   51  A    between atoms: _135  and  _137
REMARK   52  A    between atoms: _137  and  _138
REMARK   53  A    between atoms: _137  and  _140
REMARK   54  A    between atoms: _140  and  _141
REMARK   55  A    between atoms: _144  and  _146
REMARK   56  A    between atoms: _146  and  _147
REMARK   57  A    between atoms: _146  and  _149
REMARK   58  A    between atoms: _149  and  _150
REMARK   59  A    between atoms: _160  and  _162
REMARK   60  A    between atoms: _162  and  _163
REMARK   61  A    between atoms: _165  and  _167
REMARK   62  A    between atoms: _167  and  _168
REMARK   63  A    between atoms: _167  and  _170
REMARK   64  A    between atoms: _170  and  _171
REMARK   65  A    between atoms: _177  and  _179
REMARK   66  A    between atoms: _179  and  _180
REMARK   67  A    between atoms: _183  and  _185
REMARK   68  A    between atoms: _185  and  _186
REMARK   69  A    between atoms: _185  and  _188
REMARK   70  A    between atoms: _188  and  _189
REMARK   71  A    between atoms: _194  and  _195
REMARK   72  A    between atoms: _197  and  _199
REMARK   73  A    between atoms: _199  and  _200
REMARK   74  A    between atoms: _199  and  _202
REMARK   75  A    between atoms: _202  and  _203
REMARK   76  A    between atoms: _203  and  _204
REMARK   77  A    between atoms: _206  and  _208
REMARK   78  A    between atoms: _208  and  _209
REMARK   79  A    between atoms: _208  and  _211
REMARK   80  A    between atoms: _211  and  _212
REMARK   81  A    between atoms: _215  and  _217
REMARK   82  A    between atoms: _217  and  _218
REMARK   83  A    between atoms: _217  and  _220
REMARK   84  A    between atoms: _223  and  _225
REMARK   85  A    between atoms: _225  and  _226
REMARK   86  A    between atoms: _225  and  _228
REMARK   87  A    between atoms: _230  and  _232
REMARK   88  A    between atoms: _232  and  _233
REMARK   89  A    between atoms: _235  and  _237
REMARK   90  A    between atoms: _237  and  _238
REMARK   91  A    between atoms: _237  and  _240
REMARK   92  A    between atoms: _240  and  _241
REMARK   93  A    between atoms: _244  and  _246
REMARK   94  A    between atoms: _246  and  _247
REMARK   95  A    between atoms: _246  and  _249
REMARK   96  A    between atoms: _249  and  _250
REMARK   97  A    between atoms: _253  and  _255
REMARK   98  A    between atoms: _255  and  _256
REMARK   99  A    between atoms: _255  and  _258
REMARK  100  A    between atoms: _258  and  _259
REMARK  101  A    between atoms: _262  and  _264
REMARK  102  A    between atoms: _264  and  _265
REMARK  103  A    between atoms: _264  and  _267
REMARK  104  A    between atoms: _270  and  _272
REMARK  105  A    between atoms: _272  and  _273
REMARK  106  A    between atoms: _272  and  _275
REMARK  107  A    between atoms: _278  and  _280
REMARK  108  A    between atoms: _280  and  _281
REMARK  109  A    between atoms: _280  and  _283
REMARK  110  A    between atoms: _283  and  _284
REMARK  111  A    between atoms: _287  and  _289
REMARK  112  A    between atoms: _289  and  _290
REMARK  113  A    between atoms: _289  and  _292
REMARK  114  A    between atoms: _292  and  _293
REMARK  115  A    between atoms: _293  and  _294
REMARK  116  A    between atoms: _297  and  _299
REMARK  117  A    between atoms: _299  and  _300
REMARK  118  A    between atoms: _299  and  _302
REMARK  119  A    between atoms: _302  and  _303
REMARK  120  A    between atoms: _306  and  _308
REMARK  121  A    between atoms: _308  and  _309
REMARK  122  A    between atoms: _308  and  _311
REMARK  123  A    between atoms: _311  and  _312
REMARK  124  A    between atoms: _315  and  _317
REMARK  125  A    between atoms: _317  and  _318
REMARK  126  A    between atoms: _317  and  _320
REMARK  127  A    between atoms: _320  and  _321
REMARK  128  A    between atoms: _321  and  _322
REMARK  129  A    between atoms: _325  and  _327
REMARK  130  A    between atoms: _327  and  _328
REMARK  131  A    between atoms: _327  and  _330
REMARK  132  A    between atoms: _330  and  _331
REMARK  133  A    between atoms: _334  and  _336
REMARK  134  A    between atoms: _336  and  _337
REMARK  135  A    between atoms: _336  and  _339
REMARK  136  A    between atoms: _339  and  _340
REMARK  137  A    between atoms: _343  and  _345
REMARK  138  A    between atoms: _345  and  _346
REMARK  139  A    between atoms: _345  and  _348
REMARK  140  A    between atoms: _348  and  _349
REMARK  141  A    between atoms: _352  and  _354
REMARK  142  A    between atoms: _354  and  _355
REMARK  143  A    between atoms: _354  and  _357
REMARK  144  A    between atoms: _357  and  _358
REMARK  145  A    between atoms: _360  and  _362
REMARK  146  A    between atoms: _362  and  _363
REMARK  147  A    between atoms: _362  and  _365
REMARK  148  A    between atoms: _367  and  _369
REMARK  149  A    between atoms: _369  and  _370
REMARK  150  A    between atoms: _369  and  _372
REMARK  151  A    between atoms: _372  and  _373
REMARK  152  A    between atoms: _375  and  _377
REMARK  153  A    between atoms: _377  and  _378
REMARK  154  A    between atoms: _377  and  _380
REMARK  155  A    between atoms: _380  and  _381
REMARK  156  A    between atoms: _383  and  _385
REMARK  157  A    between atoms: _385  and  _386
REMARK  158  A    between atoms: _385  and  _388
REMARK  159  A    between atoms: _388  and  _389
REMARK  160  A    between atoms: _394  and  _396
REMARK  161  A    between atoms: _396  and  _397
REMARK  162  A    between atoms: _396  and  _399
REMARK  163  A    between atoms: _402  and  _404
REMARK  164  A    between atoms: _404  and  _405
REMARK  165  A    between atoms: _404  and  _407
REMARK  166  A    between atoms: _407  and  _408
REMARK  167  A    between atoms: _413  and  _414
REMARK  168  A    between atoms: _416  and  _418
REMARK  169  A    between atoms: _418  and  _419
REMARK  170  A    between atoms: _418  and  _421
REMARK  171  A    between atoms: _421  and  _422
REMARK  172  A    between atoms: _425  and  _427
REMARK  173  A    between atoms: _427  and  _428
REMARK  174  A    between atoms: _427  and  _430
REMARK  175  A    between atoms: _430  and  _431
REMARK  176  A    between atoms: _434  and  _436
REMARK  177  A    between atoms: _436  and  _437
REMARK  178  A    between atoms: _436  and  _439
REMARK  179  A    between atoms: _439  and  _440
REMARK  180  A    between atoms: _440  and  _441
REMARK  181  A    between atoms: _441  and  _442
REMARK  182  A    between atoms: _451  and  _453
REMARK  183  A    between atoms: _453  and  _454
REMARK  184  A    between atoms: _456  and  _458
REMARK  185  A    between atoms: _458  and  _459
REMARK  186  A    between atoms: _458  and  _461
REMARK  187  A    between atoms: _461  and  _462
REMARK  188  A    between atoms: _467  and  _469
REMARK  189  A    between atoms: _469  and  _470
REMARK  190  A    between atoms: _469  and  _472
REMARK  191  A    between atoms: _472  and  _473
REMARK  192  A    between atoms: _476  and  _478
REMARK  193  A    between atoms: _478  and  _479
REMARK  194  A    between atoms: _478  and  _481
REMARK  195  A    between atoms: _481  and  _482
REMARK  196  A    between atoms: _482  and  _483
REMARK  197  A    between atoms: _485  and  _487
REMARK  198  A    between atoms: _487  and  _488
REMARK  199  A    between atoms: _487  and  _490
REMARK  200  A    between atoms: _490  and  _491
REMARK  201  A    between atoms: _496  and  _497
REMARK  202  A    between atoms: _499  and  _501
REMARK  203  A    between atoms: _501  and  _502
REMARK  204  A    between atoms: _506  and  _507
REMARK  205  A    between atoms: _512  and  _514
REMARK  206  A    between atoms: _514  and  _515
REMARK  207  A    between atoms: _514  and  _517
REMARK  208  A    between atoms: _517  and  _518
REMARK  209  A    between atoms: _521  and  _523
REMARK  210  A    between atoms: _523  and  _524
REMARK  211  A    between atoms: _523  and  _526
REMARK  212  A    between atoms: _526  and  _527
REMARK  213  A    between atoms: _527  and  _528
REMARK  214  A    between atoms: _533  and  _535
REMARK  215  A    between atoms: _535  and  _536
REMARK  216  A    between atoms: _535  and  _538
REMARK  217  A    between atoms: _538  and  _539
REMARK  218  A    between atoms: _542  and  _544
REMARK  219  A    between atoms: _544  and  _545
REMARK  220  A    between atoms: _544  and  _547
REMARK  221  A    between atoms: _547  and  _548
REMARK  222  A    between atoms: _553  and  _554
REMARK  223  A    between atoms: _556  and  _558
REMARK  224  A    between atoms: _558  and  _559
REMARK  225  A    between atoms: _561  and  _563
REMARK  226  A    between atoms: _563  and  _564
REMARK  227  A    between atoms: _563  and  _566
REMARK  228  A    between atoms: _566  and  _567
REMARK  229  A    between atoms: _570  and  _572
REMARK  230  A    between atoms: _572  and  _573
REMARK  231  A    between atoms: _572  and  _575
REMARK  232  A    between atoms: _575  and  _576
REMARK  233  A    between atoms: _581  and  _583
REMARK  234  A    between atoms: _583  and  _584
REMARK  235  A    between atoms: _583  and  _586
REMARK  236  A    between atoms: _586  and  _587
REMARK  237  A    between atoms: _593  and  _595
REMARK  238  A    between atoms: _595  and  _596
REMARK  239  A    between atoms: _599  and  _601
REMARK  240  A    between atoms: _601  and  _602
REMARK  241  A    between atoms: _604  and  _606
REMARK  242  A    between atoms: _606  and  _607
REMARK  243  A    between atoms: _606  and  _609
REMARK  244  A    between atoms: _609  and  _610
REMARK  245  A    between atoms: _615  and  _616
REMARK                            x       y       z     vdW  Elec       q    Type
REMARK                         _______ _______ _______ _____ _____    ______ ____
ROOT
ATOM      1  CA  ASP A   6     -15.648 -14.778  21.080  0.00  0.00    +0.160 C 
ENDROOT
BRANCH   1   2
ATOM      2  C   ASP A   6     -16.540 -15.421  20.016  0.00  0.00    +0.241 C 
ATOM      3  O   ASP A   6     -17.425 -16.213  20.355  0.00  0.00    -0.273 OA
ATOM      4  N   ASP A   7     -16.321 -15.089  18.745  0.00  0.00    -0.297 N 
ATOM      5  H   ASP A   7     -15.554 -14.423  18.523  0.00  0.00    +0.150 HD
BRANCH   4   6
ATOM      6  CA  ASP A   7     -17.131 -15.636  17.646  0.00  0.00    +0.160 C 
BRANCH   6   7
ATOM      7  C   ASP A   7     -16.416 -16.847  17.045  0.00  0.00    +0.241 C 
ATOM      8  N   LEU A   8     -17.103 -17.987  17.028  0.00  0.00    -0.297 N 
ATOM      9  H   LEU A   8     -18.094 -17.974  17.343  0.00  0.00    +0.150 HD
ATOM     10  O   ASP A   7     -15.269 -16.741  16.599  0.00  0.00    -0.273 OA
BRANCH   8  11
ATOM     11  CA  LEU A   8     -16.529 -19.256  16.587  0.00  0.00    +0.149 C 
BRANCH  11  12
ATOM     12  C   LEU A   8     -17.435 -19.913  15.552  0.00  0.00    +0.241 C 
ATOM     13  O   LEU A   8     -18.644 -19.991  15.752  0.00  0.00    -0.273 OA
ATOM     14  N   VAL A   9     -16.833 -20.391  14.473  0.00  0.00    -0.297 N 
ATOM     15  H   VAL A   9     -15.856 -20.093  14.275  0.00  0.00    +0.150 HD
BRANCH  14  16
ATOM     16  CA  VAL A   9     -17.482 -21.318  13.549  0.00  0.00    +0.149 C 
BRANCH  16  17
ATOM     17  C   VAL A   9     -16.636 -22.576  13.420  0.00  0.00    +0.241 C 
ATOM     18  N   VAL A  10     -17.306 -23.724  13.435  0.00  0.00    -0.297 N 
ATOM     19  H   VAL A  10     -18.325 -23.703  13.641  0.00  0.00    +0.150 HD
ATOM     20  O   VAL A   9     -15.411 -22.506  13.333  0.00  0.00    -0.273 OA
BRANCH  18  21
ATOM     21  CA  VAL A  10     -16.676 -25.002  13.177  0.00  0.00    +0.149 C 
BRANCH  21  22
ATOM     22  C   VAL A  10     -17.346 -25.606  11.935  0.00  0.00    +0.241 C 
ATOM     23  O   VAL A  10     -18.571 -25.582  11.813  0.00  0.00    -0.273 OA
ATOM     24  N   ILE A  11     -16.528 -26.091  11.009  0.00  0.00    -0.298 N 
ATOM     25  H   ILE A  11     -15.507 -25.919  11.109  0.00  0.00    +0.150 HD
BRANCH  24  26
ATOM     26  CA  ILE A  11     -16.994 -26.854   9.858  0.00  0.00    +0.137 C 
BRANCH  26  27
ATOM     27  CB  ILE A  11     -16.607 -26.188   8.541  0.00  0.00    +0.026 C 
ATOM     28  CG2 ILE A  11     -17.005 -27.060   7.353  0.00  0.00    +0.002 C 
BRANCH  27  29
ATOM     29  CG1 ILE A  11     -17.264 -24.813   8.439  0.00  0.00    +0.002 C 
ATOM     30  CD1 ILE A  11     -16.746 -23.966   7.306  0.00  0.00    +0.000 C 
ENDBRANCH  27  29
ENDBRANCH  26  27
BRANCH  26  31
ATOM     31  C   ILE A  11     -16.339 -28.224   9.934  0.00  0.00    +0.227 C 
ATOM     32  O   ILE A  11     -15.124 -28.330  10.137  0.00  0.00    -0.286 OA
ENDBRANCH  26  31
ENDBRANCH  24  26
ENDBRANCH  21  22
BRANCH  21  33
ATOM     33  CB  VAL A  10     -16.812 -25.964  14.384  0.00  0.00    +0.027 C 
ATOM     34  CG2 VAL A  10     -16.134 -25.368  15.626  0.00  0.00    +0.002 C 
ATOM     35  CG1 VAL A  10     -16.249 -27.360  14.042  0.00  0.00    +0.002 C 
ENDBRANCH  21  33
ENDBRANCH  18  21
ENDBRANCH  16  17
BRANCH  16  36
ATOM     36  CB  VAL A   9     -17.689 -20.674  12.167  0.00  0.00    +0.027 C 
ATOM     37  CG2 VAL A   9     -18.669 -19.526  12.295  0.00  0.00    +0.002 C 
ATOM     38  CG1 VAL A   9     -18.181 -21.706  11.137  0.00  0.00    +0.002 C 
ENDBRANCH  16  36
ENDBRANCH  14  16
ENDBRANCH  11  12
BRANCH  11  39
ATOM     39  CB  LEU A   8     -16.395 -20.203  17.782  0.00  0.00    +0.029 C 
BRANCH  39  40
ATOM     40  CG  LEU A   8     -16.035 -21.672  17.546  0.00  0.00    +0.002 C 
ATOM     41  CD2 LEU A   8     -16.239 -22.447  18.854  0.00  0.00    +0.000 C 
ATOM     42  CD1 LEU A   8     -14.606 -21.867  17.003  0.00  0.00    +0.000 C 
ENDBRANCH  39  40
ENDBRANCH  11  39
ENDBRANCH   8  11
ENDBRANCH   6   7
BRANCH   6  43
ATOM     43  CB  ASP A   7     -17.355 -14.574  16.558  0.00  0.00    +0.143 C 
BRANCH  43  44
ATOM     44  CG  ASP A   7     -18.163 -13.380  17.045  0.00  0.00    +0.367 C 
ATOM     45  OD2 ASP A   7     -19.379 -13.530  17.272  0.00  0.00    -0.246 OA
ATOM     46  OD1 ASP A   7     -17.595 -12.275  17.168  0.00  0.00    -0.246 OA
ENDBRANCH  43  44
ENDBRANCH   6  43
ENDBRANCH   4   6
ENDBRANCH   1   2
BRANCH   1  48
ATOM     47  C   GLY A   5     -13.485 -14.260  20.089  0.00  0.00    +0.243 C 
ATOM     48  N   ASP A   6     -14.666 -13.855  20.546  0.00  0.00    -0.296 N 
ATOM     49  H   ASP A   6     -14.893 -12.840  20.519  0.00  0.00    +0.150 HD
ATOM     50  O   GLY A   5     -13.113 -15.435  20.124  0.00  0.00    -0.273 OA
BRANCH  47  51
ATOM     51  CA  GLY A   5     -12.604 -13.182  19.484  0.00  0.00    +0.176 C 
BRANCH  51  53
ATOM     52  C   CYS A   4     -13.099 -13.658  17.155  0.00  0.00    +0.242 C 
ATOM     53  N   GLY A   5     -12.197 -13.541  18.126  0.00  0.00    -0.295 N 
ATOM     54  H   GLY A   5     -11.192 -13.707  17.917  0.00  0.00    +0.150 HD
ATOM     55  O   CYS A   4     -14.293 -13.453  17.345  0.00  0.00    -0.273 OA
BRANCH  52  56
ATOM     56  CA  CYS A   4     -12.586 -14.101  15.784  0.00  0.00    +0.160 C 
BRANCH  56  58
ATOM     57  C   VAL A   3     -11.761 -16.423  15.425  0.00  0.00    +0.241 C 
ATOM     58  N   CYS A   4     -12.750 -15.556  15.683  0.00  0.00    -0.296 N 
ATOM     59  H   CYS A   4     -13.705 -15.943  15.822  0.00  0.00    +0.150 HD
ATOM     60  O   VAL A   3     -10.610 -16.107  15.135  0.00  0.00    -0.273 OA
BRANCH  57  61
ATOM     61  CA  VAL A   3     -12.134 -17.893  15.509  0.00  0.00    +0.149 C 
BRANCH  61  63
ATOM     62  C   LEU A   2     -12.817 -19.340  13.669  0.00  0.00    +0.241 C 
ATOM     63  N   VAL A   3     -11.877 -18.603  14.261  0.00  0.00    -0.297 N 
ATOM     64  H   VAL A   3     -10.937 -18.533  13.822  0.00  0.00    +0.150 HD
ATOM     65  O   LEU A   2     -13.957 -19.410  14.077  0.00  0.00    -0.273 OA
BRANCH  62  66
ATOM     66  CA  LEU A   2     -12.400 -20.147  12.458  0.00  0.00    +0.149 C 
BRANCH  66  68
ATOM     67  C   MET A   1     -11.901 -22.524  12.614  0.00  0.00    +0.238 C 
ATOM     68  N   LEU A   2     -12.772 -21.531  12.726  0.00  0.00    -0.297 N 
ATOM     69  H   LEU A   2     -13.748 -21.745  13.013  0.00  0.00    +0.150 HD
ATOM     70  O   MET A   1     -10.794 -22.387  12.126  0.00  0.00    -0.274 OA
BRANCH  67  71
ATOM     71  CA  MET A   1     -12.337 -23.873  13.152  0.00  0.00    +0.146 C 
BRANCH  71  72
ATOM     72  N   MET A   1     -11.809 -24.953  12.314  0.00  0.00    -0.238 NA
ATOM     73  H   MET A   1     -10.797 -25.189  12.366  0.00  0.00    +0.142 HD
ENDBRANCH  71  72
BRANCH  71  74
ATOM     74  CB  MET A   1     -11.838 -23.984  14.597  0.00  0.00    +0.038 C 
BRANCH  74  75
ATOM     75  CG  MET A   1     -12.236 -25.252  15.309  0.00  0.00    +0.060 C 
BRANCH  75  76
ATOM     76  SD  MET A   1     -11.790 -25.132  17.050  0.00  0.00    -0.139 S 
ATOM     77  CE  MET A   1     -10.045 -25.391  16.863  0.00  0.00    +0.069 C 
ENDBRANCH  75  76
ENDBRANCH  74  75
ENDBRANCH  71  74
ENDBRANCH  67  71
ENDBRANCH  66  68
BRANCH  66  78
ATOM     78  CB  LEU A   2     -13.093 -19.629  11.199  0.00  0.00    +0.029 C 
BRANCH  78  79
ATOM     79  CG  LEU A   2     -12.502 -18.364  10.581  0.00  0.00    +0.002 C 
ATOM     80  CD2 LEU A   2     -11.000 -18.455  10.365  0.00  0.00    +0.000 C 
ATOM     81  CD1 LEU A   2     -13.227 -18.125   9.260  0.00  0.00    +0.000 C 
ENDBRANCH  78  79
ENDBRANCH  66  78
ENDBRANCH  62  66
ENDBRANCH  61  63
BRANCH  61  82
ATOM     82  CB  VAL A   3     -11.350 -18.526  16.686  0.00  0.00    +0.027 C 
ATOM     83  CG2 VAL A   3     -11.845 -17.946  18.005  0.00  0.00    +0.002 C 
ATOM     84  CG1 VAL A   3     -11.477 -20.063  16.651  0.00  0.00    +0.002 C 
ENDBRANCH  61  82
ENDBRANCH  57  61
ENDBRANCH  56  58
BRANCH  56  85
ATOM     85  CB  CYS A   4     -13.382 -13.386  14.683  0.00  0.00    +0.098 C 
ATOM     86  SG  CYS A   4     -12.684 -13.577  13.049  0.00  0.00    -0.080 S 
ENDBRANCH  56  85
ENDBRANCH  52  56
ENDBRANCH  51  53
ENDBRANCH  47  51
ENDBRANCH   1  48
BRANCH   1  87
ATOM     87  CB  ASP A   6     -16.498 -14.089  22.166  0.00  0.00    +0.143 C 
BRANCH  87  88
ATOM     88  CG  ASP A   6     -17.353 -12.949  21.648  0.00  0.00    +0.367 C 
ATOM     89  OD2 ASP A   6     -18.271 -12.546  22.391  0.00  0.00    -0.246 OA
ATOM     90  OD1 ASP A   6     -17.118 -12.428  20.538  0.00  0.00    -0.246 OA
ENDBRANCH  87  88
ENDBRANCH   1  87
TORSDOF 39
REMARK  Name = ../refined-set-2016/3fql/3fql_pocket.pdb
REMARK  245 active torsions:
REMARK  status: ('A' for Active; 'I' for Inactive)
REMARK    1  A    between atoms: _1  and  _3
REMARK    2  A    between atoms: _3  and  _4
REMARK    3  A    between atoms: _3  and  _6
REMARK    4  A    between atoms: _6  and  _7
REMARK    5  A    between atoms: _9  and  _11
REMARK    6  A    between atoms: _11  and  _12
REMARK    7  A    between atoms: _11  and  _14
REMARK    8  A    between atoms: _14  and  _15
REMARK    9  A    between atoms: _20  and  _21
REMARK   10  A    between atoms: _23  and  _25
REMARK   11  A    between atoms: _25  and  _26
REMARK   12  A    between atoms: _28  and  _30
REMARK   13  A    between atoms: _30  and  _31
REMARK   14  A    between atoms: _30  and  _33
REMARK   15  A    between atoms: _33  and  _34
REMARK   16  A    between atoms: _40  and  _42
REMARK   17  A    between atoms: _42  and  _43
REMARK   18  A    between atoms: _42  and  _45
REMARK   19  A    between atoms: _45  and  _46
REMARK   20  A    between atoms: _46  and  _47
REMARK   21  A    between atoms: _52  and  _54
REMARK   22  A    between atoms: _54  and  _55
REMARK   23  A    between atoms: _54  and  _57
REMARK   24  A    between atoms: _57  and  _58
REMARK   25  A    between atoms: _63  and  _64
REMARK   26  A    between atoms: _66  and  _68
REMARK   27  A    between atoms: _68  and  _69
REMARK   28  A    between atoms: _68  and  _71
REMARK   29  A    between atoms: _71  and  _72
REMARK   30  A    between atoms: _75  and  _76
REMARK   31  A    between atoms: _81  and  _83
REMARK   32  A    between atoms: _83  and  _84
REMARK   33  A    between atoms: _86  and  _88
REMARK   34  A    between atoms: _88  and  _89
REMARK   35  A    between atoms: _88  and  _91
REMARK   36  A    between atoms: _91  and  _92
REMARK   37  A    between atoms: _92  and  _93
REMARK   38  A    between atoms: _98  and  _100
REMARK   39  A    between atoms: _100  and  _101
REMARK   40  A    between atoms: _100  and  _103
REMARK   41  A    between atoms: _103  and  _104
REMARK   42  A    between atoms: _104  and  _105
REMARK   43  A    between atoms: _105  and  _106
REMARK   44  A    between atoms: _115  and  _117
REMARK   45  A    between atoms: _117  and  _118
REMARK   46  A    between atoms: _117  and  _120
REMARK   47  A    between atoms: _123  and  _125
REMARK   48  A    between atoms: _125  and  _126
REMARK   49  A    between atoms: _125  and  _128
REMARK   50  A    between atoms: _128  and  _129
REMARK   51  A    between atoms: _135  and  _137
REMARK   52  A    between atoms: _137  and  _138
REMARK   53  A    between atoms: _137  and  _140
REMARK   54  A    between atoms: _140  and  _141
REMARK   55  A    between atoms: _144  and  _146
REMARK   56  A    between atoms: _146  and  _147
REMARK   57  A    between atoms: _146  and  _149
REMARK   58  A    between atoms: _149  and  _150
REMARK   59  A    between atoms: _160  and  _162
REMARK   60  A    between atoms: _162  and  _163
REMARK   61  A    between atoms: _165  and  _167
REMARK   62  A    between atoms: _167  and  _168
REMARK   63  A    between atoms: _167  and  _170
REMARK   64  A    between atoms: _170  and  _171
REMARK   65  A    between atoms: _177  and  _179
REMARK   66  A    between atoms: _179  and  _180
REMARK   67  A    between atoms: _183  and  _185
REMARK   68  A    between atoms: _185  and  _186
REMARK   69  A    between atoms: _185  and  _188
REMARK   70  A    between atoms: _188  and  _189
REMARK   71  A    between atoms: _194  and  _195
REMARK   72  A    between atoms: _197  and  _199
REMARK   73  A    between atoms: _199  and  _200
REMARK   74  A    between atoms: _199  and  _202
REMARK   75  A    between atoms: _202  and  _203
REMARK   76  A    between atoms: _203  and  _204
REMARK   77  A    between atoms: _206  and  _208
REMARK   78  A    between atoms: _208  and  _209
REMARK   79  A    between atoms: _208  and  _211
REMARK   80  A    between atoms: _211  and  _212
REMARK   81  A    between atoms: _215  and  _217
REMARK   82  A    between atoms: _217  and  _218
REMARK   83  A    between atoms: _217  and  _220
REMARK   84  A    between atoms: _223  and  _225
REMARK   85  A    between atoms: _225  and  _226
REMARK   86  A    between atoms: _225  and  _228
REMARK   87  A    between atoms: _230  and  _232
REMARK   88  A    between atoms: _232  and  _233
REMARK   89  A    between atoms: _235  and  _237
REMARK   90  A    between atoms: _237  and  _238
REMARK   91  A    between atoms: _237  and  _240
REMARK   92  A    between atoms: _240  and  _241
REMARK   93  A    between atoms: _244  and  _246
REMARK   94  A    between atoms: _246  and  _247
REMARK   95  A    between atoms: _246  and  _249
REMARK   96  A    between atoms: _249  and  _250
REMARK   97  A    between atoms: _253  and  _255
REMARK   98  A    between atoms: _255  and  _256
REMARK   99  A    between atoms: _255  and  _258
REMARK  100  A    between atoms: _258  and  _259
REMARK  101  A    between atoms: _262  and  _264
REMARK  102  A    between atoms: _264  and  _265
REMARK  103  A    between atoms: _264  and  _267
REMARK  104  A    between atoms: _270  and  _272
REMARK  105  A    between atoms: _272  and  _273
REMARK  106  A    between atoms: _272  and  _275
REMARK  107  A    between atoms: _278  and  _280
REMARK  108  A    between atoms: _280  and  _281
REMARK  109  A    between atoms: _280  and  _283
REMARK  110  A    between atoms: _283  and  _284
REMARK  111  A    between atoms: _287  and  _289
REMARK  112  A    between atoms: _289  and  _290
REMARK  113  A    between atoms: _289  and  _292
REMARK  114  A    between atoms: _292  and  _293
REMARK  115  A    between atoms: _293  and  _294
REMARK  116  A    between atoms: _297  and  _299
REMARK  117  A    between atoms: _299  and  _300
REMARK  118  A    between atoms: _299  and  _302
REMARK  119  A    between atoms: _302  and  _303
REMARK  120  A    between atoms: _306  and  _308
REMARK  121  A    between atoms: _308  and  _309
REMARK  122  A    between atoms: _308  and  _311
REMARK  123  A    between atoms: _311  and  _312
REMARK  124  A    between atoms: _315  and  _317
REMARK  125  A    between atoms: _317  and  _318
REMARK  126  A    between atoms: _317  and  _320
REMARK  127  A    between atoms: _320  and  _321
REMARK  128  A    between atoms: _321  and  _322
REMARK  129  A    between atoms: _325  and  _327
REMARK  130  A    between atoms: _327  and  _328
REMARK  131  A    between atoms: _327  and  _330
REMARK  132  A    between atoms: _330  and  _331
REMARK  133  A    between atoms: _334  and  _336
REMARK  134  A    between atoms: _336  and  _337
REMARK  135  A    between atoms: _336  and  _339
REMARK  136  A    between atoms: _339  and  _340
REMARK  137  A    between atoms: _343  and  _345
REMARK  138  A    between atoms: _345  and  _346
REMARK  139  A    between atoms: _345  and  _348
REMARK  140  A    between atoms: _348  and  _349
REMARK  141  A    between atoms: _352  and  _354
REMARK  142  A    between atoms: _354  and  _355
REMARK  143  A    between atoms: _354  and  _357
REMARK  144  A    between atoms: _357  and  _358
REMARK  145  A    between atoms: _360  and  _362
REMARK  146  A    between atoms: _362  and  _363
REMARK  147  A    between atoms: _362  and  _365
REMARK  148  A    between atoms: _367  and  _369
REMARK  149  A    between atoms: _369  and  _370
REMARK  150  A    between atoms: _369  and  _372
REMARK  151  A    between atoms: _372  and  _373
REMARK  152  A    between atoms: _375  and  _377
REMARK  153  A    between atoms: _377  and  _378
REMARK  154  A    between atoms: _377  and  _380
REMARK  155  A    between atoms: _380  and  _381
REMARK  156  A    between atoms: _383  and  _385
REMARK  157  A    between atoms: _385  and  _386
REMARK  158  A    between atoms: _385  and  _388
REMARK  159  A    between atoms: _388  and  _389
REMARK  160  A    between atoms: _394  and  _396
REMARK  161  A    between atoms: _396  and  _397
REMARK  162  A    between atoms: _396  and  _399
REMARK  163  A    between atoms: _402  and  _404
REMARK  164  A    between atoms: _404  and  _405
REMARK  165  A    between atoms: _404  and  _407
REMARK  166  A    between atoms: _407  and  _408
REMARK  167  A    between atoms: _413  and  _414
REMARK  168  A    between atoms: _416  and  _418
REMARK  169  A    between atoms: _418  and  _419
REMARK  170  A    between atoms: _418  and  _421
REMARK  171  A    between atoms: _421  and  _422
REMARK  172  A    between atoms: _425  and  _427
REMARK  173  A    between atoms: _427  and  _428
REMARK  174  A    between atoms: _427  and  _430
REMARK  175  A    between atoms: _430  and  _431
REMARK  176  A    between atoms: _434  and  _436
REMARK  177  A    between atoms: _436  and  _437
REMARK  178  A    between atoms: _436  and  _439
REMARK  179  A    between atoms: _439  and  _440
REMARK  180  A    between atoms: _440  and  _441
REMARK  181  A    between atoms: _441  and  _442
REMARK  182  A    between atoms: _451  and  _453
REMARK  183  A    between atoms: _453  and  _454
REMARK  184  A    between atoms: _456  and  _458
REMARK  185  A    between atoms: _458  and  _459
REMARK  186  A    between atoms: _458  and  _461
REMARK  187  A    between atoms: _461  and  _462
REMARK  188  A    between atoms: _467  and  _469
REMARK  189  A    between atoms: _469  and  _470
REMARK  190  A    between atoms: _469  and  _472
REMARK  191  A    between atoms: _472  and  _473
REMARK  192  A    between atoms: _476  and  _478
REMARK  193  A    between atoms: _478  and  _479
REMARK  194  A    between atoms: _478  and  _481
REMARK  195  A    between atoms: _481  and  _482
REMARK  196  A    between atoms: _482  and  _483
REMARK  197  A    between atoms: _485  and  _487
REMARK  198  A    between atoms: _487  and  _488
REMARK  199  A    between atoms: _487  and  _490
REMARK  200  A    between atoms: _490  and  _491
REMARK  201  A    between atoms: _496  and  _497
REMARK  202  A    between atoms: _499  and  _501
REMARK  203  A    between atoms: _501  and  _502
REMARK  204  A    between atoms: _506  and  _507
REMARK  205  A    between atoms: _512  and  _514
REMARK  206  A    between atoms: _514  and  _515
REMARK  207  A    between atoms: _514  and  _517
REMARK  208  A    between atoms: _517  and  _518
REMARK  209  A    between atoms: _521  and  _523
REMARK  210  A    between atoms: _523  and  _524
REMARK  211  A    between atoms: _523  and  _526
REMARK  212  A    between atoms: _526  and  _527
REMARK  213  A    between atoms: _527  and  _528
REMARK  214  A    between atoms: _533  and  _535
REMARK  215  A    between atoms: _535  and  _536
REMARK  216  A    between atoms: _535  and  _538
REMARK  217  A    between atoms: _538  and  _539
REMARK  218  A    between atoms: _542  and  _544
REMARK  219  A    between atoms: _544  and  _545
REMARK  220  A    between atoms: _544  and  _547
REMARK  221  A    between atoms: _547  and  _548
REMARK  222  A    between atoms: _553  and  _554
REMARK  223  A    between atoms: _556  and  _558
REMARK  224  A    between atoms: _558  and  _559
REMARK  225  A    between atoms: _561  and  _563
REMARK  226  A    between atoms: _563  and  _564
REMARK  227  A    between atoms: _563  and  _566
REMARK  228  A    between atoms: _566  and  _567
REMARK  229  A    between atoms: _570  and  _572
REMARK  230  A    between atoms: _572  and  _573
REMARK  231  A    between atoms: _572  and  _575
REMARK  232  A    between atoms: _575  and  _576
REMARK  233  A    between atoms: _581  and  _583
REMARK  234  A    between atoms: _583  and  _584
REMARK  235  A    between atoms: _583  and  _586
REMARK  236  A    between atoms: _586  and  _587
REMARK  237  A    between atoms: _593  and  _595
REMARK  238  A    between atoms: _595  and  _596
REMARK  239  A    between atoms: _599  and  _601
REMARK  240  A    between atoms: _601  and  _602
REMARK  241  A    between atoms: _604  and  _606
REMARK  242  A    between atoms: _606  and  _607
REMARK  243  A    between atoms: _606  and  _609
REMARK  244  A    between atoms: _609  and  _610
REMARK  245  A    between atoms: _615  and  _616
REMARK                            x       y       z     vdW  Elec       q    Type
REMARK                         _______ _______ _______ _____ _____    ______ ____
ROOT
ATOM      1  CA  GLU A   1     -26.235 -26.454   9.320  0.00  0.00    +0.134 C 
ENDROOT
BRANCH   1   2
ATOM      2  N   GLU A   1     -25.791 -27.002  10.590  0.00  0.00    -0.239 NA
ATOM      3  H   GLU A   1     -24.778 -26.976  10.824  0.00  0.00    +0.142 HD
ENDBRANCH   1   2
BRANCH   1   4
ATOM      4  C   GLU A   1     -25.536 -27.200   8.203  0.00  0.00    +0.224 C 
ATOM      5  O   GLU A   1     -24.351 -27.537   8.305  0.00  0.00    -0.287 OA
ENDBRANCH   1   4
BRANCH   1   6
ATOM      6  CB  GLU A   1     -25.935 -24.952   9.229  0.00  0.00    +0.037 C 
BRANCH   6   7
ATOM      7  CG  GLU A   1     -26.666 -24.105  10.265  0.00  0.00    +0.116 C 
BRANCH   7   8
ATOM      8  CD  GLU A   1     -28.139 -23.857   9.942  0.00  0.00    +0.365 C 
ATOM      9  OE2 GLU A   1     -28.806 -23.209  10.787  0.00  0.00    -0.246 OA
ATOM     10  OE1 GLU A   1     -28.629 -24.282   8.867  0.00  0.00    -0.246 OA
ENDBRANCH   7   8
ENDBRANCH   6   7
ENDBRANCH   1   6
TORSDOF 5
REMARK  Name = ../refined-set-2016/3fql/3fql_pocket.pdb
REMARK  245 active torsions:
REMARK  status: ('A' for Active; 'I' for Inactive)
REMARK    1  A    between atoms: _1  and  _3
REMARK    2  A    between atoms: _3  and  _4
REMARK    3  A    between atoms: _3  and  _6
REMARK    4  A    between atoms: _6  and  _7
REMARK    5  A    between atoms: _9  and  _11
REMARK    6  A    between atoms: _11  and  _12
REMARK    7  A    between atoms: _11  and  _14
REMARK    8  A    between atoms: _14  and  _15
REMARK    9  A    between atoms: _20  and  _21
REMARK   10  A    between atoms: _23  and  _25
REMARK   11  A    between atoms: _25  and  _26
REMARK   12  A    between atoms: _28  and  _30
REMARK   13  A    between atoms: _30  and  _31
REMARK   14  A    between atoms: _30  and  _33
REMARK   15  A    between atoms: _33  and  _34
REMARK   16  A    between atoms: _40  and  _42
REMARK   17  A    between atoms: _42  and  _43
REMARK   18  A    between atoms: _42  and  _45
REMARK   19  A    between atoms: _45  and  _46
REMARK   20  A    between atoms: _46  and  _47
REMARK   21  A    between atoms: _52  and  _54
REMARK   22  A    between atoms: _54  and  _55
REMARK   23  A    between atoms: _54  and  _57
REMARK   24  A    between atoms: _57  and  _58
REMARK   25  A    between atoms: _63  and  _64
REMARK   26  A    between atoms: _66  and  _68
REMARK   27  A    between atoms: _68  and  _69
REMARK   28  A    between atoms: _68  and  _71
REMARK   29  A    between atoms: _71  and  _72
REMARK   30  A    between atoms: _75  and  _76
REMARK   31  A    between atoms: _81  and  _83
REMARK   32  A    between atoms: _83  and  _84
REMARK   33  A    between atoms: _86  and  _88
REMARK   34  A    between atoms: _88  and  _89
REMARK   35  A    between atoms: _88  and  _91
REMARK   36  A    between atoms: _91  and  _92
REMARK   37  A    between atoms: _92  and  _93
REMARK   38  A    between atoms: _98  and  _100
REMARK   39  A    between atoms: _100  and  _101
REMARK   40  A    between atoms: _100  and  _103
REMARK   41  A    between atoms: _103  and  _104
REMARK   42  A    between atoms: _104  and  _105
REMARK   43  A    between atoms: _105  and  _106
REMARK   44  A    between atoms: _115  and  _117
REMARK   45  A    between atoms: _117  and  _118
REMARK   46  A    between atoms: _117  and  _120
REMARK   47  A    between atoms: _123  and  _125
REMARK   48  A    between atoms: _125  and  _126
REMARK   49  A    between atoms: _125  and  _128
REMARK   50  A    between atoms: _128  and  _129
REMARK   51  A    between atoms: _135  and  _137
REMARK   52  A    between atoms: _137  and  _138
REMARK   53  A    between atoms: _137  and  _140
REMARK   54  A    between atoms: _140  and  _141
REMARK   55  A    between atoms: _144  and  _146
REMARK   56  A    between atoms: _146  and  _147
REMARK   57  A    between atoms: _146  and  _149
REMARK   58  A    between atoms: _149  and  _150
REMARK   59  A    between atoms: _160  and  _162
REMARK   60  A    between atoms: _162  and  _163
REMARK   61  A    between atoms: _165  and  _167
REMARK   62  A    between atoms: _167  and  _168
REMARK   63  A    between atoms: _167  and  _170
REMARK   64  A    between atoms: _170  and  _171
REMARK   65  A    between atoms: _177  and  _179
REMARK   66  A    between atoms: _179  and  _180
REMARK   67  A    between atoms: _183  and  _185
REMARK   68  A    between atoms: _185  and  _186
REMARK   69  A    between atoms: _185  and  _188
REMARK   70  A    between atoms: _188  and  _189
REMARK   71  A    between atoms: _194  and  _195
REMARK   72  A    between atoms: _197  and  _199
REMARK   73  A    between atoms: _199  and  _200
REMARK   74  A    between atoms: _199  and  _202
REMARK   75  A    between atoms: _202  and  _203
REMARK   76  A    between atoms: _203  and  _204
REMARK   77  A    between atoms: _206  and  _208
REMARK   78  A    between atoms: _208  and  _209
REMARK   79  A    between atoms: _208  and  _211
REMARK   80  A    between atoms: _211  and  _212
REMARK   81  A    between atoms: _215  and  _217
REMARK   82  A    between atoms: _217  and  _218
REMARK   83  A    between atoms: _217  and  _220
REMARK   84  A    between atoms: _223  and  _225
REMARK   85  A    between atoms: _225  and  _226
REMARK   86  A    between atoms: _225  and  _228
REMARK   87  A    between atoms: _230  and  _232
REMARK   88  A    between atoms: _232  and  _233
REMARK   89  A    between atoms: _235  and  _237
REMARK   90  A    between atoms: _237  and  _238
REMARK   91  A    between atoms: _237  and  _240
REMARK   92  A    between atoms: _240  and  _241
REMARK   93  A    between atoms: _244  and  _246
REMARK   94  A    between atoms: _246  and  _247
REMARK   95  A    between atoms: _246  and  _249
REMARK   96  A    between atoms: _249  and  _250
REMARK   97  A    between atoms: _253  and  _255
REMARK   98  A    between atoms: _255  and  _256
REMARK   99  A    between atoms: _255  and  _258
REMARK  100  A    between atoms: _258  and  _259
REMARK  101  A    between atoms: _262  and  _264
REMARK  102  A    between atoms: _264  and  _265
REMARK  103  A    between atoms: _264  and  _267
REMARK  104  A    between atoms: _270  and  _272
REMARK  105  A    between atoms: _272  and  _273
REMARK  106  A    between atoms: _272  and  _275
REMARK  107  A    between atoms: _278  and  _280
REMARK  108  A    between atoms: _280  and  _281
REMARK  109  A    between atoms: _280  and  _283
REMARK  110  A    between atoms: _283  and  _284
REMARK  111  A    between atoms: _287  and  _289
REMARK  112  A    between atoms: _289  and  _290
REMARK  113  A    between atoms: _289  and  _292
REMARK  114  A    between atoms: _292  and  _293
REMARK  115  A    between atoms: _293  and  _294
REMARK  116  A    between atoms: _297  and  _299
REMARK  117  A    between atoms: _299  and  _300
REMARK  118  A    between atoms: _299  and  _302
REMARK  119  A    between atoms: _302  and  _303
REMARK  120  A    between atoms: _306  and  _308
REMARK  121  A    between atoms: _308  and  _309
REMARK  122  A    between atoms: _308  and  _311
REMARK  123  A    between atoms: _311  and  _312
REMARK  124  A    between atoms: _315  and  _317
REMARK  125  A    between atoms: _317  and  _318
REMARK  126  A    between atoms: _317  and  _320
REMARK  127  A    between atoms: _320  and  _321
REMARK  128  A    between atoms: _321  and  _322
REMARK  129  A    between atoms: _325  and  _327
REMARK  130  A    between atoms: _327  and  _328
REMARK  131  A    between atoms: _327  and  _330
REMARK  132  A    between atoms: _330  and  _331
REMARK  133  A    between atoms: _334  and  _336
REMARK  134  A    between atoms: _336  and  _337
REMARK  135  A    between atoms: _336  and  _339
REMARK  136  A    between atoms: _339  and  _340
REMARK  137  A    between atoms: _343  and  _345
REMARK  138  A    between atoms: _345  and  _346
REMARK  139  A    between atoms: _345  and  _348
REMARK  140  A    between atoms: _348  and  _349
REMARK  141  A    between atoms: _352  and  _354
REMARK  142  A    between atoms: _354  and  _355
REMARK  143  A    between atoms: _354  and  _357
REMARK  144  A    between atoms: _357  and  _358
REMARK  145  A    between atoms: _360  and  _362
REMARK  146  A    between atoms: _362  and  _363
REMARK  147  A    between atoms: _362  and  _365
REMARK  148  A    between atoms: _367  and  _369
REMARK  149  A    between atoms: _369  and  _370
REMARK  150  A    between atoms: _369  and  _372
REMARK  151  A    between atoms: _372  and  _373
REMARK  152  A    between atoms: _375  and  _377
REMARK  153  A    between atoms: _377  and  _378
REMARK  154  A    between atoms: _377  and  _380
REMARK  155  A    between atoms: _380  and  _381
REMARK  156  A    between atoms: _383  and  _385
REMARK  157  A    between atoms: _385  and  _386
REMARK  158  A    between atoms: _385  and  _388
REMARK  159  A    between atoms: _388  and  _389
REMARK  160  A    between atoms: _394  and  _396
REMARK  161  A    between atoms: _396  and  _397
REMARK  162  A    between atoms: _396  and  _399
REMARK  163  A    between atoms: _402  and  _404
REMARK  164  A    between atoms: _404  and  _405
REMARK  165  A    between atoms: _404  and  _407
REMARK  166  A    between atoms: _407  and  _408
REMARK  167  A    between atoms: _413  and  _414
REMARK  168  A    between atoms: _416  and  _418
REMARK  169  A    between atoms: _418  and  _419
REMARK  170  A    between atoms: _418  and  _421
REMARK  171  A    between atoms: _421  and  _422
REMARK  172  A    between atoms: _425  and  _427
REMARK  173  A    between atoms: _427  and  _428
REMARK  174  A    between atoms: _427  and  _430
REMARK  175  A    between atoms: _430  and  _431
REMARK  176  A    between atoms: _434  and  _436
REMARK  177  A    between atoms: _436  and  _437
REMARK  178  A    between atoms: _436  and  _439
REMARK  179  A    between atoms: _439  and  _440
REMARK  180  A    between atoms: _440  and  _441
REMARK  181  A    between atoms: _441  and  _442
REMARK  182  A    between atoms: _451  and  _453
REMARK  183  A    between atoms: _453  and  _454
REMARK  184  A    between atoms: _456  and  _458
REMARK  185  A    between atoms: _458  and  _459
REMARK  186  A    between atoms: _458  and  _461
REMARK  187  A    between atoms: _461  and  _462
REMARK  188  A    between atoms: _467  and  _469
REMARK  189  A    between atoms: _469  and  _470
REMARK  190  A    between atoms: _469  and  _472
REMARK  191  A    between atoms: _472  and  _473
REMARK  192  A    between atoms: _476  and  _478
REMARK  193  A    between atoms: _478  and  _479
REMARK  194  A    between atoms: _478  and  _481
REMARK  195  A    between atoms: _481  and  _482
REMARK  196  A    between atoms: _482  and  _483
REMARK  197  A    between atoms: _485  and  _487
REMARK  198  A    between atoms: _487  and  _488
REMARK  199  A    between atoms: _487  and  _490
REMARK  200  A    between atoms: _490  and  _491
REMARK  201  A    between atoms: _496  and  _497
REMARK  202  A    between atoms: _499  and  _501
REMARK  203  A    between atoms: _501  and  _502
REMARK  204  A    between atoms: _506  and  _507
REMARK  205  A    between atoms: _512  and  _514
REMARK  206  A    between atoms: _514  and  _515
REMARK  207  A    between atoms: _514  and  _517
REMARK  208  A    between atoms: _517  and  _518
REMARK  209  A    between atoms: _521  and  _523
REMARK  210  A    between atoms: _523  and  _524
REMARK  211  A    between atoms: _523  and  _526
REMARK  212  A    between atoms: _526  and  _527
REMARK  213  A    between atoms: _527  and  _528
REMARK  214  A    between atoms: _533  and  _535
REMARK  215  A    between atoms: _535  and  _536
REMARK  216  A    between atoms: _535  and  _538
REMARK  217  A    between atoms: _538  and  _539
REMARK  218  A    between atoms: _542  and  _544
REMARK  219  A    between atoms: _544  and  _545
REMARK  220  A    between atoms: _544  and  _547
REMARK  221  A    between atoms: _547  and  _548
REMARK  222  A    between atoms: _553  and  _554
REMARK  223  A    between atoms: _556  and  _558
REMARK  224  A    between atoms: _558  and  _559
REMARK  225  A    between atoms: _561  and  _563
REMARK  226  A    between atoms: _563  and  _564
REMARK  227  A    between atoms: _563  and  _566
REMARK  228  A    between atoms: _566  and  _567
REMARK  229  A    between atoms: _570  and  _572
REMARK  230  A    between atoms: _572  and  _573
REMARK  231  A    between atoms: _572  and  _575
REMARK  232  A    between atoms: _575  and  _576
REMARK  233  A    between atoms: _581  and  _583
REMARK  234  A    between atoms: _583  and  _584
REMARK  235  A    between atoms: _583  and  _586
REMARK  236  A    between atoms: _586  and  _587
REMARK  237  A    between atoms: _593  and  _595
REMARK  238  A    between atoms: _595  and  _596
REMARK  239  A    between atoms: _599  and  _601
REMARK  240  A    between atoms: _601  and  _602
REMARK  241  A    between atoms: _604  and  _606
REMARK  242  A    between atoms: _606  and  _607
REMARK  243  A    between atoms: _606  and  _609
REMARK  244  A    between atoms: _609  and  _610
REMARK  245  A    between atoms: _615  and  _616
REMARK                            x       y       z     vdW  Elec       q    Type
REMARK                         _______ _______ _______ _____ _____    ______ ____
ROOT
ATOM      1  CA  THR A   6     -24.339 -16.549  10.587  0.00  0.00    +0.176 C 
ENDROOT
BRANCH   1   3
ATOM      2  C   ILE A   5     -24.249 -18.490   9.135  0.00  0.00    +0.241 C 
ATOM      3  N   THR A   6     -24.609 -17.947  10.290  0.00  0.00    -0.295 N 
ATOM      4  H   THR A   6     -25.095 -18.533  10.999  0.00  0.00    +0.150 HD
ATOM      5  O   ILE A   5     -23.796 -17.830   8.213  0.00  0.00    -0.273 OA
BRANCH   2   6
ATOM      6  CA  ILE A   5     -24.449 -20.004   8.979  0.00  0.00    +0.149 C 
BRANCH   6   9
ATOM      7  C   LEU A   4     -26.528 -20.191   7.713  0.00  0.00    +0.241 C 
ATOM      8  O   LEU A   4     -27.200 -20.019   8.730  0.00  0.00    -0.273 OA
ATOM      9  N   ILE A   5     -25.196 -20.224   7.736  0.00  0.00    -0.297 N 
ATOM     10  H   ILE A   5     -24.676 -20.409   6.855  0.00  0.00    +0.150 HD
BRANCH   7  11
ATOM     11  CA  LEU A   4     -27.223 -20.348   6.351  0.00  0.00    +0.149 C 
BRANCH  11  13
ATOM     12  C   GLU A   3     -25.942 -19.416   4.494  0.00  0.00    +0.241 C 
ATOM     13  N   LEU A   4     -26.297 -20.467   5.230  0.00  0.00    -0.297 N 
ATOM     14  H   LEU A   4     -25.902 -21.401   4.999  0.00  0.00    +0.150 HD
ATOM     15  O   GLU A   3     -26.348 -18.279   4.726  0.00  0.00    -0.273 OA
BRANCH  12  16
ATOM     16  CA  GLU A   3     -24.993 -19.674   3.318  0.00  0.00    +0.149 C 
BRANCH  16  19
ATOM     17  C   LEU A   2     -23.520 -21.389   4.259  0.00  0.00    +0.241 C 
ATOM     18  O   LEU A   2     -23.179 -20.665   5.201  0.00  0.00    -0.273 OA
ATOM     19  N   GLU A   3     -24.430 -21.027   3.359  0.00  0.00    -0.297 N 
ATOM     20  H   GLU A   3     -24.753 -21.727   2.661  0.00  0.00    +0.150 HD
BRANCH  17  21
ATOM     21  CA  LEU A   2     -22.909 -22.784   4.079  0.00  0.00    +0.149 C 
BRANCH  21  24
ATOM     22  C   ASP A   1     -25.005 -24.027   4.284  0.00  0.00    +0.239 C 
ATOM     23  O   ASP A   1     -25.318 -23.416   5.298  0.00  0.00    -0.274 OA
ATOM     24  N   LEU A   2     -23.884 -23.781   3.606  0.00  0.00    -0.297 N 
ATOM     25  H   LEU A   2     -23.694 -24.303   2.727  0.00  0.00    +0.150 HD
BRANCH  22  26
ATOM     26  CA  ASP A   1     -25.909 -25.146   3.773  0.00  0.00    +0.156 C 
BRANCH  26  27
ATOM     27  N   ASP A   1     -25.990 -26.118   4.849  0.00  0.00    -0.238 NA
ATOM     28  H   ASP A   1     -26.275 -25.776   5.789  0.00  0.00    +0.142 HD
ENDBRANCH  26  27
BRANCH  26  29
ATOM     29  CB  ASP A   1     -27.310 -24.602   3.494  0.00  0.00    +0.140 C 
BRANCH  29  30
ATOM     30  CG  ASP A   1     -27.357 -23.654   2.310  0.00  0.00    +0.367 C 
ATOM     31  OD2 ASP A   1     -26.332 -23.007   1.992  0.00  0.00    -0.246 OA
ATOM     32  OD1 ASP A   1     -28.444 -23.550   1.704  0.00  0.00    -0.246 OA
ENDBRANCH  29  30
ENDBRANCH  26  29
ENDBRANCH  22  26
ENDBRANCH  21  24
BRANCH  21  33
ATOM     33  CB  LEU A   2     -21.724 -22.689   3.125  0.00  0.00    +0.029 C 
BRANCH  33  34
ATOM     34  CG  LEU A   2     -20.663 -21.640   3.492  0.00  0.00    +0.002 C 
ATOM     35  CD2 LEU A   2     -20.050 -21.973   4.840  0.00  0.00    +0.000 C 
ATOM     36  CD1 LEU A   2     -19.603 -21.549   2.421  0.00  0.00    +0.000 C 
ENDBRANCH  33  34
ENDBRANCH  21  33
ENDBRANCH  17  21
ENDBRANCH  16  19
BRANCH  16  37
ATOM     37  CB  GLU A   3     -25.724 -19.434   1.980  0.00  0.00    +0.041 C 
BRANCH  37  38
ATOM     38  CG  GLU A   3     -24.864 -19.638   0.745  0.00  0.00    +0.116 C 
BRANCH  38  39
ATOM     39  CD  GLU A   3     -25.616 -19.376  -0.562  0.00  0.00    +0.365 C 
ATOM     40  OE2 GLU A   3     -26.147 -18.263  -0.738  0.00  0.00    -0.246 OA
ATOM     41  OE1 GLU A   3     -25.662 -20.286  -1.423  0.00  0.00    -0.246 OA
ENDBRANCH  38  39
ENDBRANCH  37  38
ENDBRANCH  16  37
ENDBRANCH  12  16
ENDBRANCH  11  13
BRANCH  11  42
ATOM     42  CB  LEU A   4     -28.169 -21.551   6.365  0.00  0.00    +0.029 C 
BRANCH  42  43
ATOM     43  CG  LEU A   4     -29.082 -21.676   5.129  0.00  0.00    +0.002 C 
ATOM     44  CD2 LEU A   4     -30.117 -22.772   5.356  0.00  0.00    +0.000 C 
ATOM     45  CD1 LEU A   4     -29.778 -20.363   4.784  0.00  0.00    +0.000 C 
ENDBRANCH  42  43
ENDBRANCH  11  42
ENDBRANCH   7  11
ENDBRANCH   6   9
BRANCH   6  46
ATOM     46  CB  ILE A   5     -23.071 -20.724   8.967  0.00  0.00    +0.027 C 
ATOM     47  CG2 ILE A   5     -22.249 -20.368  10.207  0.00  0.00    +0.002 C 
BRANCH  46  48
ATOM     48  CG1 ILE A   5     -23.248 -22.249   8.884  0.00  0.00    +0.002 C 
ATOM     49  CD1 ILE A   5     -21.979 -22.989   8.576  0.00  0.00    +0.000 C 
ENDBRANCH  46  48
ENDBRANCH   6  46
ENDBRANCH   2   6
ENDBRANCH   1   3
BRANCH   1  50
ATOM     50  C   THR A   6     -23.299 -16.457  11.700  0.00  0.00    +0.243 C 
ATOM     51  O   THR A   6     -23.446 -17.069  12.765  0.00  0.00    -0.273 OA
ATOM     52  N   SER A   7     -22.244 -15.692  11.436  0.00  0.00    -0.295 N 
ATOM     53  H   SER A   7     -22.171 -15.250  10.497  0.00  0.00    +0.150 HD
BRANCH  52  54
ATOM     54  CA  SER A   7     -21.187 -15.448  12.408  0.00  0.00    +0.178 C 
BRANCH  54  55
ATOM     55  C   SER A   7     -20.634 -14.048  12.186  0.00  0.00    +0.243 C 
ATOM     56  N   CYS A   8     -20.304 -13.359  13.282  0.00  0.00    -0.296 N 
ATOM     57  H   CYS A   8     -20.298 -13.851  14.198  0.00  0.00    +0.150 HD
ATOM     58  O   SER A   7     -20.511 -13.604  11.036  0.00  0.00    -0.273 OA
BRANCH  56  59
ATOM     59  CA  CYS A   8     -19.950 -11.936  13.243  0.00  0.00    +0.160 C 
BRANCH  59  60
ATOM     60  C   CYS A   8     -20.997 -11.155  12.446  0.00  0.00    +0.242 C 
ATOM     61  N   SER A   9     -22.266 -11.499  12.685  0.00  0.00    -0.295 N 
ATOM     62  H   SER A   9     -22.435 -12.277  13.354  0.00  0.00    +0.150 HD
ATOM     63  O   CYS A   8     -20.651 -10.312  11.617  0.00  0.00    -0.273 OA
BRANCH  61  64
ATOM     64  CA  SER A   9     -23.439 -10.862  12.075  0.00  0.00    +0.178 C 
BRANCH  64  65
ATOM     65  C   SER A   9     -23.518 -11.063  10.557  0.00  0.00    +0.243 C 
ATOM     66  N   SER A  10     -22.710 -11.978  10.019  0.00  0.00    -0.295 N 
ATOM     67  H   SER A  10     -22.206 -12.639  10.644  0.00  0.00    +0.150 HD
ATOM     68  O   SER A   9     -24.328 -10.422   9.893  0.00  0.00    -0.273 OA
BRANCH  66  69
ATOM     69  CA  SER A  10     -22.514 -12.076   8.572  0.00  0.00    +0.178 C 
BRANCH  69  70
ATOM     70  C   SER A  10     -22.778 -13.482   8.066  0.00  0.00    +0.243 C 
ATOM     71  O   SER A  10     -22.671 -14.448   8.812  0.00  0.00    -0.273 OA
ATOM     72  N   ASN A  11     -23.127 -13.587   6.788  0.00  0.00    -0.297 N 
ATOM     73  H   ASN A  11     -23.335 -12.724   6.247  0.00  0.00    +0.150 HD
BRANCH  72  74
ATOM     74  CA  ASN A  11     -23.226 -14.884   6.125  0.00  0.00    +0.158 C 
BRANCH  74  75
ATOM     75  C   ASN A  11     -22.650 -14.814   4.726  0.00  0.00    +0.241 C 
ATOM     76  N   VAL A  12     -22.306 -15.981   4.196  0.00  0.00    -0.298 N 
ATOM     77  H   VAL A  12     -22.409 -16.844   4.768  0.00  0.00    +0.150 HD
ATOM     78  O   ASN A  11     -22.524 -13.734   4.146  0.00  0.00    -0.273 OA
BRANCH  76  79
ATOM     79  CA  VAL A  12     -21.793 -16.091   2.851  0.00  0.00    +0.137 C 
BRANCH  79  80
ATOM     80  CB  VAL A  12     -21.001 -17.376   2.659  0.00  0.00    +0.026 C 
ATOM     81  CG2 VAL A  12     -19.785 -17.378   3.573  0.00  0.00    +0.002 C 
ATOM     82  CG1 VAL A  12     -20.589 -17.560   1.156  0.00  0.00    +0.002 C 
ENDBRANCH  79  80
BRANCH  79  83
ATOM     83  C   VAL A  12     -22.974 -16.065   1.892  0.00  0.00    +0.227 C 
ATOM     84  O   VAL A  12     -24.021 -16.654   2.164  0.00  0.00    -0.286 OA
ENDBRANCH  79  83
ENDBRANCH  76  79
ENDBRANCH  74  75
BRANCH  74  85
ATOM     85  CB  ASN A  11     -24.681 -15.360   6.050  0.00  0.00    +0.114 C 
BRANCH  85  86
ATOM     86  CG  ASN A  11     -25.516 -14.492   5.131  0.00  0.00    +0.222 C 
ATOM     87  OD1 ASN A  11     -25.964 -13.427   5.530  0.00  0.00    -0.275 OA
ATOM     88  ND2 ASN A  11     -25.678 -14.918   3.881  0.00  0.00    -0.329 N 
ATOM     89 HD21 ASN A  11     -25.278 -15.832   3.587  0.00  0.00    +0.145 HD
ATOM     90 HD22 ASN A  11     -26.204 -14.337   3.198  0.00  0.00    +0.145 HD
ENDBRANCH  85  86
ENDBRANCH  74  85
ENDBRANCH  72  74
ENDBRANCH  69  70
BRANCH  69  91
ATOM     91  CB  SER A  10     -21.080 -11.671   8.198  0.00  0.00    +0.166 C 
BRANCH  91  92
ATOM     92  OG  SER A  10     -20.777 -10.378   8.671  0.00  0.00    -0.380 OA
ATOM     93  H   SER A  10     -21.405  -9.726   8.271  0.00  0.00    +0.211 HD
ENDBRANCH  91  92
ENDBRANCH  69  91
ENDBRANCH  66  69
ENDBRANCH  64  65
BRANCH  64  94
ATOM     94  CB  SER A   9     -23.487  -9.368  12.425  0.00  0.00    +0.166 C 
BRANCH  94  95
ATOM     95  OG  SER A   9     -23.368  -9.172  13.832  0.00  0.00    -0.380 OA
ATOM     96  H   SER A   9     -23.402  -8.203  14.033  0.00  0.00    +0.211 HD
ENDBRANCH  94  95
ENDBRANCH  64  94
ENDBRANCH  61  64
ENDBRANCH  59  60
BRANCH  59  97
ATOM     97  CB  CYS A   8     -18.543 -11.733  12.661  0.00  0.00    +0.098 C 
ATOM     98  SG  CYS A   8     -17.226 -12.523  13.647  0.00  0.00    -0.080 S 
ENDBRANCH  59  97
ENDBRANCH  56  59
ENDBRANCH  54  55
BRANCH  54  99
ATOM     99  CB  SER A   7     -20.078 -16.490  12.275  0.00  0.00    +0.166 C 
BRANCH  99 100
ATOM    100  OG  SER A   7     -18.975 -16.168  13.112  0.00  0.00    -0.380 OA
ATOM    101  H   SER A   7     -19.275 -16.141  14.055  0.00  0.00    +0.211 HD
ENDBRANCH  99 100
ENDBRANCH  54  99
ENDBRANCH  52  54
ENDBRANCH   1  50
BRANCH   1 102
ATOM    102  CB  THR A   6     -25.616 -15.800  11.000  0.00  0.00    +0.137 C 
ATOM    103  CG2 THR A   6     -25.305 -14.407  11.492  0.00  0.00    +0.034 C 
BRANCH 102 104
ATOM    104  OG1 THR A   6     -26.503 -15.715   9.874  0.00  0.00    -0.382 OA
ATOM    105  HG1 THR A   6     -26.055 -15.226   9.139  0.00  0.00    +0.210 HD
ENDBRANCH 102 104
ENDBRANCH   1 102
TORSDOF 47
REMARK  Name = ../refined-set-2016/3fql/3fql_pocket.pdb
REMARK  245 active torsions:
REMARK  status: ('A' for Active; 'I' for Inactive)
REMARK    1  A    between atoms: _1  and  _3
REMARK    2  A    between atoms: _3  and  _4
REMARK    3  A    between atoms: _3  and  _6
REMARK    4  A    between atoms: _6  and  _7
REMARK    5  A    between atoms: _9  and  _11
REMARK    6  A    between atoms: _11  and  _12
REMARK    7  A    between atoms: _11  and  _14
REMARK    8  A    between atoms: _14  and  _15
REMARK    9  A    between atoms: _20  and  _21
REMARK   10  A    between atoms: _23  and  _25
REMARK   11  A    between atoms: _25  and  _26
REMARK   12  A    between atoms: _28  and  _30
REMARK   13  A    between atoms: _30  and  _31
REMARK   14  A    between atoms: _30  and  _33
REMARK   15  A    between atoms: _33  and  _34
REMARK   16  A    between atoms: _40  and  _42
REMARK   17  A    between atoms: _42  and  _43
REMARK   18  A    between atoms: _42  and  _45
REMARK   19  A    between atoms: _45  and  _46
REMARK   20  A    between atoms: _46  and  _47
REMARK   21  A    between atoms: _52  and  _54
REMARK   22  A    between atoms: _54  and  _55
REMARK   23  A    between atoms: _54  and  _57
REMARK   24  A    between atoms: _57  and  _58
REMARK   25  A    between atoms: _63  and  _64
REMARK   26  A    between atoms: _66  and  _68
REMARK   27  A    between atoms: _68  and  _69
REMARK   28  A    between atoms: _68  and  _71
REMARK   29  A    between atoms: _71  and  _72
REMARK   30  A    between atoms: _75  and  _76
REMARK   31  A    between atoms: _81  and  _83
REMARK   32  A    between atoms: _83  and  _84
REMARK   33  A    between atoms: _86  and  _88
REMARK   34  A    between atoms: _88  and  _89
REMARK   35  A    between atoms: _88  and  _91
REMARK   36  A    between atoms: _91  and  _92
REMARK   37  A    between atoms: _92  and  _93
REMARK   38  A    between atoms: _98  and  _100
REMARK   39  A    between atoms: _100  and  _101
REMARK   40  A    between atoms: _100  and  _103
REMARK   41  A    between atoms: _103  and  _104
REMARK   42  A    between atoms: _104  and  _105
REMARK   43  A    between atoms: _105  and  _106
REMARK   44  A    between atoms: _115  and  _117
REMARK   45  A    between atoms: _117  and  _118
REMARK   46  A    between atoms: _117  and  _120
REMARK   47  A    between atoms: _123  and  _125
REMARK   48  A    between atoms: _125  and  _126
REMARK   49  A    between atoms: _125  and  _128
REMARK   50  A    between atoms: _128  and  _129
REMARK   51  A    between atoms: _135  and  _137
REMARK   52  A    between atoms: _137  and  _138
REMARK   53  A    between atoms: _137  and  _140
REMARK   54  A    between atoms: _140  and  _141
REMARK   55  A    between atoms: _144  and  _146
REMARK   56  A    between atoms: _146  and  _147
REMARK   57  A    between atoms: _146  and  _149
REMARK   58  A    between atoms: _149  and  _150
REMARK   59  A    between atoms: _160  and  _162
REMARK   60  A    between atoms: _162  and  _163
REMARK   61  A    between atoms: _165  and  _167
REMARK   62  A    between atoms: _167  and  _168
REMARK   63  A    between atoms: _167  and  _170
REMARK   64  A    between atoms: _170  and  _171
REMARK   65  A    between atoms: _177  and  _179
REMARK   66  A    between atoms: _179  and  _180
REMARK   67  A    between atoms: _183  and  _185
REMARK   68  A    between atoms: _185  and  _186
REMARK   69  A    between atoms: _185  and  _188
REMARK   70  A    between atoms: _188  and  _189
REMARK   71  A    between atoms: _194  and  _195
REMARK   72  A    between atoms: _197  and  _199
REMARK   73  A    between atoms: _199  and  _200
REMARK   74  A    between atoms: _199  and  _202
REMARK   75  A    between atoms: _202  and  _203
REMARK   76  A    between atoms: _203  and  _204
REMARK   77  A    between atoms: _206  and  _208
REMARK   78  A    between atoms: _208  and  _209
REMARK   79  A    between atoms: _208  and  _211
REMARK   80  A    between atoms: _211  and  _212
REMARK   81  A    between atoms: _215  and  _217
REMARK   82  A    between atoms: _217  and  _218
REMARK   83  A    between atoms: _217  and  _220
REMARK   84  A    between atoms: _223  and  _225
REMARK   85  A    between atoms: _225  and  _226
REMARK   86  A    between atoms: _225  and  _228
REMARK   87  A    between atoms: _230  and  _232
REMARK   88  A    between atoms: _232  and  _233
REMARK   89  A    between atoms: _235  and  _237
REMARK   90  A    between atoms: _237  and  _238
REMARK   91  A    between atoms: _237  and  _240
REMARK   92  A    between atoms: _240  and  _241
REMARK   93  A    between atoms: _244  and  _246
REMARK   94  A    between atoms: _246  and  _247
REMARK   95  A    between atoms: _246  and  _249
REMARK   96  A    between atoms: _249  and  _250
REMARK   97  A    between atoms: _253  and  _255
REMARK   98  A    between atoms: _255  and  _256
REMARK   99  A    between atoms: _255  and  _258
REMARK  100  A    between atoms: _258  and  _259
REMARK  101  A    between atoms: _262  and  _264
REMARK  102  A    between atoms: _264  and  _265
REMARK  103  A    between atoms: _264  and  _267
REMARK  104  A    between atoms: _270  and  _272
REMARK  105  A    between atoms: _272  and  _273
REMARK  106  A    between atoms: _272  and  _275
REMARK  107  A    between atoms: _278  and  _280
REMARK  108  A    between atoms: _280  and  _281
REMARK  109  A    between atoms: _280  and  _283
REMARK  110  A    between atoms: _283  and  _284
REMARK  111  A    between atoms: _287  and  _289
REMARK  112  A    between atoms: _289  and  _290
REMARK  113  A    between atoms: _289  and  _292
REMARK  114  A    between atoms: _292  and  _293
REMARK  115  A    between atoms: _293  and  _294
REMARK  116  A    between atoms: _297  and  _299
REMARK  117  A    between atoms: _299  and  _300
REMARK  118  A    between atoms: _299  and  _302
REMARK  119  A    between atoms: _302  and  _303
REMARK  120  A    between atoms: _306  and  _308
REMARK  121  A    between atoms: _308  and  _309
REMARK  122  A    between atoms: _308  and  _311
REMARK  123  A    between atoms: _311  and  _312
REMARK  124  A    between atoms: _315  and  _317
REMARK  125  A    between atoms: _317  and  _318
REMARK  126  A    between atoms: _317  and  _320
REMARK  127  A    between atoms: _320  and  _321
REMARK  128  A    between atoms: _321  and  _322
REMARK  129  A    between atoms: _325  and  _327
REMARK  130  A    between atoms: _327  and  _328
REMARK  131  A    between atoms: _327  and  _330
REMARK  132  A    between atoms: _330  and  _331
REMARK  133  A    between atoms: _334  and  _336
REMARK  134  A    between atoms: _336  and  _337
REMARK  135  A    between atoms: _336  and  _339
REMARK  136  A    between atoms: _339  and  _340
REMARK  137  A    between atoms: _343  and  _345
REMARK  138  A    between atoms: _345  and  _346
REMARK  139  A    between atoms: _345  and  _348
REMARK  140  A    between atoms: _348  and  _349
REMARK  141  A    between atoms: _352  and  _354
REMARK  142  A    between atoms: _354  and  _355
REMARK  143  A    between atoms: _354  and  _357
REMARK  144  A    between atoms: _357  and  _358
REMARK  145  A    between atoms: _360  and  _362
REMARK  146  A    between atoms: _362  and  _363
REMARK  147  A    between atoms: _362  and  _365
REMARK  148  A    between atoms: _367  and  _369
REMARK  149  A    between atoms: _369  and  _370
REMARK  150  A    between atoms: _369  and  _372
REMARK  151  A    between atoms: _372  and  _373
REMARK  152  A    between atoms: _375  and  _377
REMARK  153  A    between atoms: _377  and  _378
REMARK  154  A    between atoms: _377  and  _380
REMARK  155  A    between atoms: _380  and  _381
REMARK  156  A    between atoms: _383  and  _385
REMARK  157  A    between atoms: _385  and  _386
REMARK  158  A    between atoms: _385  and  _388
REMARK  159  A    between atoms: _388  and  _389
REMARK  160  A    between atoms: _394  and  _396
REMARK  161  A    between atoms: _396  and  _397
REMARK  162  A    between atoms: _396  and  _399
REMARK  163  A    between atoms: _402  and  _404
REMARK  164  A    between atoms: _404  and  _405
REMARK  165  A    between atoms: _404  and  _407
REMARK  166  A    between atoms: _407  and  _408
REMARK  167  A    between atoms: _413  and  _414
REMARK  168  A    between atoms: _416  and  _418
REMARK  169  A    between atoms: _418  and  _419
REMARK  170  A    between atoms: _418  and  _421
REMARK  171  A    between atoms: _421  and  _422
REMARK  172  A    between atoms: _425  and  _427
REMARK  173  A    between atoms: _427  and  _428
REMARK  174  A    between atoms: _427  and  _430
REMARK  175  A    between atoms: _430  and  _431
REMARK  176  A    between atoms: _434  and  _436
REMARK  177  A    between atoms: _436  and  _437
REMARK  178  A    between atoms: _436  and  _439
REMARK  179  A    between atoms: _439  and  _440
REMARK  180  A    between atoms: _440  and  _441
REMARK  181  A    between atoms: _441  and  _442
REMARK  182  A    between atoms: _451  and  _453
REMARK  183  A    between atoms: _453  and  _454
REMARK  184  A    between atoms: _456  and  _458
REMARK  185  A    between atoms: _458  and  _459
REMARK  186  A    between atoms: _458  and  _461
REMARK  187  A    between atoms: _461  and  _462
REMARK  188  A    between atoms: _467  and  _469
REMARK  189  A    between atoms: _469  and  _470
REMARK  190  A    between atoms: _469  and  _472
REMARK  191  A    between atoms: _472  and  _473
REMARK  192  A    between atoms: _476  and  _478
REMARK  193  A    between atoms: _478  and  _479
REMARK  194  A    between atoms: _478  and  _481
REMARK  195  A    between atoms: _481  and  _482
REMARK  196  A    between atoms: _482  and  _483
REMARK  197  A    between atoms: _485  and  _487
REMARK  198  A    between atoms: _487  and  _488
REMARK  199  A    between atoms: _487  and  _490
REMARK  200  A    between atoms: _490  and  _491
REMARK  201  A    between atoms: _496  and  _497
REMARK  202  A    between atoms: _499  and  _501
REMARK  203  A    between atoms: _501  and  _502
REMARK  204  A    between atoms: _506  and  _507
REMARK  205  A    between atoms: _512  and  _514
REMARK  206  A    between atoms: _514  and  _515
REMARK  207  A    between atoms: _514  and  _517
REMARK  208  A    between atoms: _517  and  _518
REMARK  209  A    between atoms: _521  and  _523
REMARK  210  A    between atoms: _523  and  _524
REMARK  211  A    between atoms: _523  and  _526
REMARK  212  A    between atoms: _526  and  _527
REMARK  213  A    between atoms: _527  and  _528
REMARK  214  A    between atoms: _533  and  _535
REMARK  215  A    between atoms: _535  and  _536
REMARK  216  A    between atoms: _535  and  _538
REMARK  217  A    between atoms: _538  and  _539
REMARK  218  A    between atoms: _542  and  _544
REMARK  219  A    between atoms: _544  and  _545
REMARK  220  A    between atoms: _544  and  _547
REMARK  221  A    between atoms: _547  and  _548
REMARK  222  A    between atoms: _553  and  _554
REMARK  223  A    between atoms: _556  and  _558
REMARK  224  A    between atoms: _558  and  _559
REMARK  225  A    between atoms: _561  and  _563
REMARK  226  A    between atoms: _563  and  _564
REMARK  227  A    between atoms: _563  and  _566
REMARK  228  A    between atoms: _566  and  _567
REMARK  229  A    between atoms: _570  and  _572
REMARK  230  A    between atoms: _572  and  _573
REMARK  231  A    between atoms: _572  and  _575
REMARK  232  A    between atoms: _575  and  _576
REMARK  233  A    between atoms: _581  and  _583
REMARK  234  A    between atoms: _583  and  _584
REMARK  235  A    between atoms: _583  and  _586
REMARK  236  A    between atoms: _586  and  _587
REMARK  237  A    between atoms: _593  and  _595
REMARK  238  A    between atoms: _595  and  _596
REMARK  239  A    between atoms: _599  and  _601
REMARK  240  A    between atoms: _601  and  _602
REMARK  241  A    between atoms: _604  and  _606
REMARK  242  A    between atoms: _606  and  _607
REMARK  243  A    between atoms: _606  and  _609
REMARK  244  A    between atoms: _609  and  _610
REMARK  245  A    between atoms: _615  and  _616
REMARK                            x       y       z     vdW  Elec       q    Type
REMARK                         _______ _______ _______ _____ _____    ______ ____
ROOT
ATOM      1  C   LEU A   2     -20.782 -10.751   2.855  0.00  0.00    +0.241 C 
ATOM      2  N   THR A   3     -21.971 -11.001   3.380  0.00  0.00    -0.295 N 
ATOM      3  H   THR A   3     -22.172 -11.968   3.707  0.00  0.00    +0.150 HD
ATOM      4  O   LEU A   2     -20.457  -9.656   2.372  0.00  0.00    -0.273 OA
ENDROOT
BRANCH   2   5
ATOM      5  CA  THR A   3     -23.010  -9.997   3.524  0.00  0.00    +0.176 C 
BRANCH   5   6
ATOM      6  C   THR A   3     -23.631 -10.093   4.927  0.00  0.00    +0.243 C 
ATOM      7  O   THR A   3     -23.184 -10.890   5.774  0.00  0.00    -0.273 OA
ATOM      8  N   ARG A   4     -24.628  -9.254   5.180  0.00  0.00    -0.298 N 
ATOM      9  H   ARG A   4     -24.890  -8.567   4.445  0.00  0.00    +0.150 HD
BRANCH   8  10
ATOM     10  CA  ARG A   4     -25.374  -9.242   6.427  0.00  0.00    +0.137 C 
BRANCH  10  11
ATOM     11  C   ARG A   4     -26.706  -8.538   6.197  0.00  0.00    +0.227 C 
ATOM     12  O   ARG A   4     -26.875  -7.857   5.193  0.00  0.00    -0.286 OA
ENDBRANCH  10  11
BRANCH  10  13
ATOM     13  CB  ARG A   4     -24.603  -8.503   7.536  0.00  0.00    +0.031 C 
BRANCH  13  14
ATOM     14  CG  ARG A   4     -24.345  -7.010   7.288  0.00  0.00    +0.045 C 
BRANCH  14  15
ATOM     15  CD  ARG A   4     -23.896  -6.330   8.562  0.00  0.00    +0.174 C 
BRANCH  15  16
ATOM     16  NE  ARG A   4     -25.003  -6.269   9.515  0.00  0.00    -0.265 N 
ATOM     17  CZ  ARG A   4     -24.875  -6.156  10.836  0.00  0.00    +0.342 C 
ATOM     18  NH2 ARG A   4     -25.959  -6.111  11.585  0.00  0.00    -0.292 N 
ATOM     19 HH21 ARG A   4     -25.874  -6.023  12.618  0.00  0.00    +0.255 HD
ATOM     20 HH22 ARG A   4     -26.899  -6.164  11.143  0.00  0.00    +0.255 HD
ATOM     21  NH1 ARG A   4     -23.687  -6.090  11.410  0.00  0.00    -0.292 N 
ATOM     22 HH11 ARG A   4     -23.613  -6.002  12.444  0.00  0.00    +0.255 HD
ATOM     23 HH12 ARG A   4     -22.826  -6.126  10.828  0.00  0.00    +0.255 HD
ATOM     24  HE  ARG A   4     -25.968  -6.318   9.131  0.00  0.00    +0.259 HD
ENDBRANCH  15  16
ENDBRANCH  14  15
ENDBRANCH  13  14
ENDBRANCH  10  13
ENDBRANCH   8  10
ENDBRANCH   5   6
BRANCH   5  25
ATOM     25  CB  THR A   3     -24.083 -10.161   2.406  0.00  0.00    +0.137 C 
ATOM     26  CG2 THR A   3     -24.811 -11.501   2.536  0.00  0.00    +0.034 C 
BRANCH  25  27
ATOM     27  OG1 THR A   3     -25.026  -9.080   2.453  0.00  0.00    -0.382 OA
ATOM     28  HG1 THR A   3     -25.699  -9.200   1.737  0.00  0.00    +0.210 HD
ENDBRANCH  25  27
ENDBRANCH   5  25
ENDBRANCH   2   5
BRANCH   1  29
ATOM     29  CA  LEU A   2     -19.807 -11.934   2.871  0.00  0.00    +0.149 C 
BRANCH  29  31
ATOM     30  C   TYR A   1     -19.653 -12.867   0.635  0.00  0.00    +0.239 C 
ATOM     31  N   LEU A   2     -19.176 -12.059   1.574  0.00  0.00    -0.297 N 
ATOM     32  H   LEU A   2     -18.323 -11.499   1.372  0.00  0.00    +0.150 HD
ATOM     33  O   TYR A   1     -20.655 -13.566   0.798  0.00  0.00    -0.274 OA
BRANCH  30  34
ATOM     34  CA  TYR A   1     -18.897 -12.871  -0.688  0.00  0.00    +0.149 C 
BRANCH  34  35
ATOM     35  N   TYR A   1     -19.217 -14.078  -1.444  0.00  0.00    -0.238 NA
ATOM     36  H   TYR A   1     -20.116 -14.567  -1.261  0.00  0.00    +0.142 HD
ENDBRANCH  34  35
BRANCH  34  37
ATOM     37  CB  TYR A   1     -19.220 -11.605  -1.520  0.00  0.00    +0.053 C 
BRANCH  37  38
ATOM     38  CG  TYR A   1     -20.704 -11.402  -1.701  0.00  0.00    -0.020 A 
ATOM     39  CD2 TYR A   1     -21.403 -10.483  -0.929  0.00  0.00    -0.001 A 
ATOM     40  CE2 TYR A   1     -22.779 -10.334  -1.074  0.00  0.00    +0.036 A 
ATOM     41  CZ  TYR A   1     -23.443 -11.099  -2.010  0.00  0.00    +0.134 A 
ATOM     42  CE1 TYR A   1     -22.760 -12.024  -2.774  0.00  0.00    +0.036 A 
ATOM     43  CD1 TYR A   1     -21.413 -12.169  -2.615  0.00  0.00    -0.001 A 
BRANCH  41  44
ATOM     44  OH  TYR A   1     -24.799 -10.997  -2.156  0.00  0.00    -0.506 OA
ATOM     45  HH  TYR A   1     -25.100 -11.615  -2.868  0.00  0.00    +0.292 HD
ENDBRANCH  41  44
ENDBRANCH  37  38
ENDBRANCH  34  37
ENDBRANCH  30  34
ENDBRANCH  29  31
BRANCH  29  46
ATOM     46  CB  LEU A   2     -18.759 -11.730   3.968  0.00  0.00    +0.029 C 
BRANCH  46  47
ATOM     47  CG  LEU A   2     -17.888 -12.956   4.231  0.00  0.00    +0.002 C 
ATOM     48  CD2 LEU A   2     -18.679 -13.975   5.043  0.00  0.00    +0.000 C 
ATOM     49  CD1 LEU A   2     -16.575 -12.556   4.914  0.00  0.00    +0.000 C 
ENDBRANCH  46  47
ENDBRANCH  29  46
ENDBRANCH   1  29
TORSDOF 19
REMARK  Name = ../refined-set-2016/3fql/3fql_pocket.pdb
REMARK  245 active torsions:
REMARK  status: ('A' for Active; 'I' for Inactive)
REMARK    1  A    between atoms: _1  and  _3
REMARK    2  A    between atoms: _3  and  _4
REMARK    3  A    between atoms: _3  and  _6
REMARK    4  A    between atoms: _6  and  _7
REMARK    5  A    between atoms: _9  and  _11
REMARK    6  A    between atoms: _11  and  _12
REMARK    7  A    between atoms: _11  and  _14
REMARK    8  A    between atoms: _14  and  _15
REMARK    9  A    between atoms: _20  and  _21
REMARK   10  A    between atoms: _23  and  _25
REMARK   11  A    between atoms: _25  and  _26
REMARK   12  A    between atoms: _28  and  _30
REMARK   13  A    between atoms: _30  and  _31
REMARK   14  A    between atoms: _30  and  _33
REMARK   15  A    between atoms: _33  and  _34
REMARK   16  A    between atoms: _40  and  _42
REMARK   17  A    between atoms: _42  and  _43
REMARK   18  A    between atoms: _42  and  _45
REMARK   19  A    between atoms: _45  and  _46
REMARK   20  A    between atoms: _46  and  _47
REMARK   21  A    between atoms: _52  and  _54
REMARK   22  A    between atoms: _54  and  _55
REMARK   23  A    between atoms: _54  and  _57
REMARK   24  A    between atoms: _57  and  _58
REMARK   25  A    between atoms: _63  and  _64
REMARK   26  A    between atoms: _66  and  _68
REMARK   27  A    between atoms: _68  and  _69
REMARK   28  A    between atoms: _68  and  _71
REMARK   29  A    between atoms: _71  and  _72
REMARK   30  A    between atoms: _75  and  _76
REMARK   31  A    between atoms: _81  and  _83
REMARK   32  A    between atoms: _83  and  _84
REMARK   33  A    between atoms: _86  and  _88
REMARK   34  A    between atoms: _88  and  _89
REMARK   35  A    between atoms: _88  and  _91
REMARK   36  A    between atoms: _91  and  _92
REMARK   37  A    between atoms: _92  and  _93
REMARK   38  A    between atoms: _98  and  _100
REMARK   39  A    between atoms: _100  and  _101
REMARK   40  A    between atoms: _100  and  _103
REMARK   41  A    between atoms: _103  and  _104
REMARK   42  A    between atoms: _104  and  _105
REMARK   43  A    between atoms: _105  and  _106
REMARK   44  A    between atoms: _115  and  _117
REMARK   45  A    between atoms: _117  and  _118
REMARK   46  A    between atoms: _117  and  _120
REMARK   47  A    between atoms: _123  and  _125
REMARK   48  A    between atoms: _125  and  _126
REMARK   49  A    between atoms: _125  and  _128
REMARK   50  A    between atoms: _128  and  _129
REMARK   51  A    between atoms: _135  and  _137
REMARK   52  A    between atoms: _137  and  _138
REMARK   53  A    between atoms: _137  and  _140
REMARK   54  A    between atoms: _140  and  _141
REMARK   55  A    between atoms: _144  and  _146
REMARK   56  A    between atoms: _146  and  _147
REMARK   57  A    between atoms: _146  and  _149
REMARK   58  A    between atoms: _149  and  _150
REMARK   59  A    between atoms: _160  and  _162
REMARK   60  A    between atoms: _162  and  _163
REMARK   61  A    between atoms: _165  and  _167
REMARK   62  A    between atoms: _167  and  _168
REMARK   63  A    between atoms: _167  and  _170
REMARK   64  A    between atoms: _170  and  _171
REMARK   65  A    between atoms: _177  and  _179
REMARK   66  A    between atoms: _179  and  _180
REMARK   67  A    between atoms: _183  and  _185
REMARK   68  A    between atoms: _185  and  _186
REMARK   69  A    between atoms: _185  and  _188
REMARK   70  A    between atoms: _188  and  _189
REMARK   71  A    between atoms: _194  and  _195
REMARK   72  A    between atoms: _197  and  _199
REMARK   73  A    between atoms: _199  and  _200
REMARK   74  A    between atoms: _199  and  _202
REMARK   75  A    between atoms: _202  and  _203
REMARK   76  A    between atoms: _203  and  _204
REMARK   77  A    between atoms: _206  and  _208
REMARK   78  A    between atoms: _208  and  _209
REMARK   79  A    between atoms: _208  and  _211
REMARK   80  A    between atoms: _211  and  _212
REMARK   81  A    between atoms: _215  and  _217
REMARK   82  A    between atoms: _217  and  _218
REMARK   83  A    between atoms: _217  and  _220
REMARK   84  A    between atoms: _223  and  _225
REMARK   85  A    between atoms: _225  and  _226
REMARK   86  A    between atoms: _225  and  _228
REMARK   87  A    between atoms: _230  and  _232
REMARK   88  A    between atoms: _232  and  _233
REMARK   89  A    between atoms: _235  and  _237
REMARK   90  A    between atoms: _237  and  _238
REMARK   91  A    between atoms: _237  and  _240
REMARK   92  A    between atoms: _240  and  _241
REMARK   93  A    between atoms: _244  and  _246
REMARK   94  A    between atoms: _246  and  _247
REMARK   95  A    between atoms: _246  and  _249
REMARK   96  A    between atoms: _249  and  _250
REMARK   97  A    between atoms: _253  and  _255
REMARK   98  A    between atoms: _255  and  _256
REMARK   99  A    between atoms: _255  and  _258
REMARK  100  A    between atoms: _258  and  _259
REMARK  101  A    between atoms: _262  and  _264
REMARK  102  A    between atoms: _264  and  _265
REMARK  103  A    between atoms: _264  and  _267
REMARK  104  A    between atoms: _270  and  _272
REMARK  105  A    between atoms: _272  and  _273
REMARK  106  A    between atoms: _272  and  _275
REMARK  107  A    between atoms: _278  and  _280
REMARK  108  A    between atoms: _280  and  _281
REMARK  109  A    between atoms: _280  and  _283
REMARK  110  A    between atoms: _283  and  _284
REMARK  111  A    between atoms: _287  and  _289
REMARK  112  A    between atoms: _289  and  _290
REMARK  113  A    between atoms: _289  and  _292
REMARK  114  A    between atoms: _292  and  _293
REMARK  115  A    between atoms: _293  and  _294
REMARK  116  A    between atoms: _297  and  _299
REMARK  117  A    between atoms: _299  and  _300
REMARK  118  A    between atoms: _299  and  _302
REMARK  119  A    between atoms: _302  and  _303
REMARK  120  A    between atoms: _306  and  _308
REMARK  121  A    between atoms: _308  and  _309
REMARK  122  A    between atoms: _308  and  _311
REMARK  123  A    between atoms: _311  and  _312
REMARK  124  A    between atoms: _315  and  _317
REMARK  125  A    between atoms: _317  and  _318
REMARK  126  A    between atoms: _317  and  _320
REMARK  127  A    between atoms: _320  and  _321
REMARK  128  A    between atoms: _321  and  _322
REMARK  129  A    between atoms: _325  and  _327
REMARK  130  A    between atoms: _327  and  _328
REMARK  131  A    between atoms: _327  and  _330
REMARK  132  A    between atoms: _330  and  _331
REMARK  133  A    between atoms: _334  and  _336
REMARK  134  A    between atoms: _336  and  _337
REMARK  135  A    between atoms: _336  and  _339
REMARK  136  A    between atoms: _339  and  _340
REMARK  137  A    between atoms: _343  and  _345
REMARK  138  A    between atoms: _345  and  _346
REMARK  139  A    between atoms: _345  and  _348
REMARK  140  A    between atoms: _348  and  _349
REMARK  141  A    between atoms: _352  and  _354
REMARK  142  A    between atoms: _354  and  _355
REMARK  143  A    between atoms: _354  and  _357
REMARK  144  A    between atoms: _357  and  _358
REMARK  145  A    between atoms: _360  and  _362
REMARK  146  A    between atoms: _362  and  _363
REMARK  147  A    between atoms: _362  and  _365
REMARK  148  A    between atoms: _367  and  _369
REMARK  149  A    between atoms: _369  and  _370
REMARK  150  A    between atoms: _369  and  _372
REMARK  151  A    between atoms: _372  and  _373
REMARK  152  A    between atoms: _375  and  _377
REMARK  153  A    between atoms: _377  and  _378
REMARK  154  A    between atoms: _377  and  _380
REMARK  155  A    between atoms: _380  and  _381
REMARK  156  A    between atoms: _383  and  _385
REMARK  157  A    between atoms: _385  and  _386
REMARK  158  A    between atoms: _385  and  _388
REMARK  159  A    between atoms: _388  and  _389
REMARK  160  A    between atoms: _394  and  _396
REMARK  161  A    between atoms: _396  and  _397
REMARK  162  A    between atoms: _396  and  _399
REMARK  163  A    between atoms: _402  and  _404
REMARK  164  A    between atoms: _404  and  _405
REMARK  165  A    between atoms: _404  and  _407
REMARK  166  A    between atoms: _407  and  _408
REMARK  167  A    between atoms: _413  and  _414
REMARK  168  A    between atoms: _416  and  _418
REMARK  169  A    between atoms: _418  and  _419
REMARK  170  A    between atoms: _418  and  _421
REMARK  171  A    between atoms: _421  and  _422
REMARK  172  A    between atoms: _425  and  _427
REMARK  173  A    between atoms: _427  and  _428
REMARK  174  A    between atoms: _427  and  _430
REMARK  175  A    between atoms: _430  and  _431
REMARK  176  A    between atoms: _434  and  _436
REMARK  177  A    between atoms: _436  and  _437
REMARK  178  A    between atoms: _436  and  _439
REMARK  179  A    between atoms: _439  and  _440
REMARK  180  A    between atoms: _440  and  _441
REMARK  181  A    between atoms: _441  and  _442
REMARK  182  A    between atoms: _451  and  _453
REMARK  183  A    between atoms: _453  and  _454
REMARK  184  A    between atoms: _456  and  _458
REMARK  185  A    between atoms: _458  and  _459
REMARK  186  A    between atoms: _458  and  _461
REMARK  187  A    between atoms: _461  and  _462
REMARK  188  A    between atoms: _467  and  _469
REMARK  189  A    between atoms: _469  and  _470
REMARK  190  A    between atoms: _469  and  _472
REMARK  191  A    between atoms: _472  and  _473
REMARK  192  A    between atoms: _476  and  _478
REMARK  193  A    between atoms: _478  and  _479
REMARK  194  A    between atoms: _478  and  _481
REMARK  195  A    between atoms: _481  and  _482
REMARK  196  A    between atoms: _482  and  _483
REMARK  197  A    between atoms: _485  and  _487
REMARK  198  A    between atoms: _487  and  _488
REMARK  199  A    between atoms: _487  and  _490
REMARK  200  A    between atoms: _490  and  _491
REMARK  201  A    between atoms: _496  and  _497
REMARK  202  A    between atoms: _499  and  _501
REMARK  203  A    between atoms: _501  and  _502
REMARK  204  A    between atoms: _506  and  _507
REMARK  205  A    between atoms: _512  and  _514
REMARK  206  A    between atoms: _514  and  _515
REMARK  207  A    between atoms: _514  and  _517
REMARK  208  A    between atoms: _517  and  _518
REMARK  209  A    between atoms: _521  and  _523
REMARK  210  A    between atoms: _523  and  _524
REMARK  211  A    between atoms: _523  and  _526
REMARK  212  A    between atoms: _526  and  _527
REMARK  213  A    between atoms: _527  and  _528
REMARK  214  A    between atoms: _533  and  _535
REMARK  215  A    between atoms: _535  and  _536
REMARK  216  A    between atoms: _535  and  _538
REMARK  217  A    between atoms: _538  and  _539
REMARK  218  A    between atoms: _542  and  _544
REMARK  219  A    between atoms: _544  and  _545
REMARK  220  A    between atoms: _544  and  _547
REMARK  221  A    between atoms: _547  and  _548
REMARK  222  A    between atoms: _553  and  _554
REMARK  223  A    between atoms: _556  and  _558
REMARK  224  A    between atoms: _558  and  _559
REMARK  225  A    between atoms: _561  and  _563
REMARK  226  A    between atoms: _563  and  _564
REMARK  227  A    between atoms: _563  and  _566
REMARK  228  A    between atoms: _566  and  _567
REMARK  229  A    between atoms: _570  and  _572
REMARK  230  A    between atoms: _572  and  _573
REMARK  231  A    between atoms: _572  and  _575
REMARK  232  A    between atoms: _575  and  _576
REMARK  233  A    between atoms: _581  and  _583
REMARK  234  A    between atoms: _583  and  _584
REMARK  235  A    between atoms: _583  and  _586
REMARK  236  A    between atoms: _586  and  _587
REMARK  237  A    between atoms: _593  and  _595
REMARK  238  A    between atoms: _595  and  _596
REMARK  239  A    between atoms: _599  and  _601
REMARK  240  A    between atoms: _601  and  _602
REMARK  241  A    between atoms: _604  and  _606
REMARK  242  A    between atoms: _606  and  _607
REMARK  243  A    between atoms: _606  and  _609
REMARK  244  A    between atoms: _609  and  _610
REMARK  245  A    between atoms: _615  and  _616
REMARK                            x       y       z     vdW  Elec       q    Type
REMARK                         _______ _______ _______ _____ _____    ______ ____
ROOT
ATOM      1  CA  ASN A   2     -19.320  -0.854   6.201  0.00  0.00    +0.146 C 
ENDROOT
BRANCH   1   3
ATOM      2  C   GLY A   1     -17.062  -0.192   6.833  0.00  0.00    +0.240 C 
ATOM      3  N   ASN A   2     -18.369   0.062   6.842  0.00  0.00    -0.298 N 
ATOM      4  H   ASN A   2     -18.721   0.922   7.310  0.00  0.00    +0.150 HD
ATOM      5  O   GLY A   1     -16.581  -1.202   6.319  0.00  0.00    -0.274 OA
BRANCH   2   6
ATOM      6  CA  GLY A   1     -16.161   0.839   7.487  0.00  0.00    +0.169 C 
BRANCH   6   7
ATOM      7  N   GLY A   1     -16.571   2.206   7.199  0.00  0.00    -0.236 NA
ATOM      8  H   GLY A   1     -16.814   2.840   7.987  0.00  0.00    +0.142 HD
ENDBRANCH   6   7
ENDBRANCH   2   6
ENDBRANCH   1   3
BRANCH   1   9
ATOM      9  C   ASN A   2     -19.185  -0.890   4.678  0.00  0.00    +0.227 C 
ATOM     10  O   ASN A   2     -19.245  -1.966   4.079  0.00  0.00    -0.286 OA
ENDBRANCH   1   9
BRANCH   1  11
ATOM     11  CB  ASN A   2     -20.757  -0.531   6.598  0.00  0.00    +0.112 C 
BRANCH  11  12
ATOM     12  CG  ASN A   2     -21.144  -1.136   7.942  0.00  0.00    +0.222 C 
ATOM     13  ND2 ASN A   2     -21.913  -0.391   8.714  0.00  0.00    -0.329 N 
ATOM     14 HD21 ASN A   2     -22.217  -0.746   9.643  0.00  0.00    +0.145 HD
ATOM     15 HD22 ASN A   2     -22.215   0.551   8.393  0.00  0.00    +0.145 HD
ATOM     16  OD1 ASN A   2     -20.757  -2.264   8.276  0.00  0.00    -0.275 OA
ENDBRANCH  11  12
ENDBRANCH   1  11
TORSDOF 6
REMARK  Name = ../refined-set-2016/3fql/3fql_pocket.pdb
REMARK  245 active torsions:
REMARK  status: ('A' for Active; 'I' for Inactive)
REMARK    1  A    between atoms: _1  and  _3
REMARK    2  A    between atoms: _3  and  _4
REMARK    3  A    between atoms: _3  and  _6
REMARK    4  A    between atoms: _6  and  _7
REMARK    5  A    between atoms: _9  and  _11
REMARK    6  A    between atoms: _11  and  _12
REMARK    7  A    between atoms: _11  and  _14
REMARK    8  A    between atoms: _14  and  _15
REMARK    9  A    between atoms: _20  and  _21
REMARK   10  A    between atoms: _23  and  _25
REMARK   11  A    between atoms: _25  and  _26
REMARK   12  A    between atoms: _28  and  _30
REMARK   13  A    between atoms: _30  and  _31
REMARK   14  A    between atoms: _30  and  _33
REMARK   15  A    between atoms: _33  and  _34
REMARK   16  A    between atoms: _40  and  _42
REMARK   17  A    between atoms: _42  and  _43
REMARK   18  A    between atoms: _42  and  _45
REMARK   19  A    between atoms: _45  and  _46
REMARK   20  A    between atoms: _46  and  _47
REMARK   21  A    between atoms: _52  and  _54
REMARK   22  A    between atoms: _54  and  _55
REMARK   23  A    between atoms: _54  and  _57
REMARK   24  A    between atoms: _57  and  _58
REMARK   25  A    between atoms: _63  and  _64
REMARK   26  A    between atoms: _66  and  _68
REMARK   27  A    between atoms: _68  and  _69
REMARK   28  A    between atoms: _68  and  _71
REMARK   29  A    between atoms: _71  and  _72
REMARK   30  A    between atoms: _75  and  _76
REMARK   31  A    between atoms: _81  and  _83
REMARK   32  A    between atoms: _83  and  _84
REMARK   33  A    between atoms: _86  and  _88
REMARK   34  A    between atoms: _88  and  _89
REMARK   35  A    between atoms: _88  and  _91
REMARK   36  A    between atoms: _91  and  _92
REMARK   37  A    between atoms: _92  and  _93
REMARK   38  A    between atoms: _98  and  _100
REMARK   39  A    between atoms: _100  and  _101
REMARK   40  A    between atoms: _100  and  _103
REMARK   41  A    between atoms: _103  and  _104
REMARK   42  A    between atoms: _104  and  _105
REMARK   43  A    between atoms: _105  and  _106
REMARK   44  A    between atoms: _115  and  _117
REMARK   45  A    between atoms: _117  and  _118
REMARK   46  A    between atoms: _117  and  _120
REMARK   47  A    between atoms: _123  and  _125
REMARK   48  A    between atoms: _125  and  _126
REMARK   49  A    between atoms: _125  and  _128
REMARK   50  A    between atoms: _128  and  _129
REMARK   51  A    between atoms: _135  and  _137
REMARK   52  A    between atoms: _137  and  _138
REMARK   53  A    between atoms: _137  and  _140
REMARK   54  A    between atoms: _140  and  _141
REMARK   55  A    between atoms: _144  and  _146
REMARK   56  A    between atoms: _146  and  _147
REMARK   57  A    between atoms: _146  and  _149
REMARK   58  A    between atoms: _149  and  _150
REMARK   59  A    between atoms: _160  and  _162
REMARK   60  A    between atoms: _162  and  _163
REMARK   61  A    between atoms: _165  and  _167
REMARK   62  A    between atoms: _167  and  _168
REMARK   63  A    between atoms: _167  and  _170
REMARK   64  A    between atoms: _170  and  _171
REMARK   65  A    between atoms: _177  and  _179
REMARK   66  A    between atoms: _179  and  _180
REMARK   67  A    between atoms: _183  and  _185
REMARK   68  A    between atoms: _185  and  _186
REMARK   69  A    between atoms: _185  and  _188
REMARK   70  A    between atoms: _188  and  _189
REMARK   71  A    between atoms: _194  and  _195
REMARK   72  A    between atoms: _197  and  _199
REMARK   73  A    between atoms: _199  and  _200
REMARK   74  A    between atoms: _199  and  _202
REMARK   75  A    between atoms: _202  and  _203
REMARK   76  A    between atoms: _203  and  _204
REMARK   77  A    between atoms: _206  and  _208
REMARK   78  A    between atoms: _208  and  _209
REMARK   79  A    between atoms: _208  and  _211
REMARK   80  A    between atoms: _211  and  _212
REMARK   81  A    between atoms: _215  and  _217
REMARK   82  A    between atoms: _217  and  _218
REMARK   83  A    between atoms: _217  and  _220
REMARK   84  A    between atoms: _223  and  _225
REMARK   85  A    between atoms: _225  and  _226
REMARK   86  A    between atoms: _225  and  _228
REMARK   87  A    between atoms: _230  and  _232
REMARK   88  A    between atoms: _232  and  _233
REMARK   89  A    between atoms: _235  and  _237
REMARK   90  A    between atoms: _237  and  _238
REMARK   91  A    between atoms: _237  and  _240
REMARK   92  A    between atoms: _240  and  _241
REMARK   93  A    between atoms: _244  and  _246
REMARK   94  A    between atoms: _246  and  _247
REMARK   95  A    between atoms: _246  and  _249
REMARK   96  A    between atoms: _249  and  _250
REMARK   97  A    between atoms: _253  and  _255
REMARK   98  A    between atoms: _255  and  _256
REMARK   99  A    between atoms: _255  and  _258
REMARK  100  A    between atoms: _258  and  _259
REMARK  101  A    between atoms: _262  and  _264
REMARK  102  A    between atoms: _264  and  _265
REMARK  103  A    between atoms: _264  and  _267
REMARK  104  A    between atoms: _270  and  _272
REMARK  105  A    between atoms: _272  and  _273
REMARK  106  A    between atoms: _272  and  _275
REMARK  107  A    between atoms: _278  and  _280
REMARK  108  A    between atoms: _280  and  _281
REMARK  109  A    between atoms: _280  and  _283
REMARK  110  A    between atoms: _283  and  _284
REMARK  111  A    between atoms: _287  and  _289
REMARK  112  A    between atoms: _289  and  _290
REMARK  113  A    between atoms: _289  and  _292
REMARK  114  A    between atoms: _292  and  _293
REMARK  115  A    between atoms: _293  and  _294
REMARK  116  A    between atoms: _297  and  _299
REMARK  117  A    between atoms: _299  and  _300
REMARK  118  A    between atoms: _299  and  _302
REMARK  119  A    between atoms: _302  and  _303
REMARK  120  A    between atoms: _306  and  _308
REMARK  121  A    between atoms: _308  and  _309
REMARK  122  A    between atoms: _308  and  _311
REMARK  123  A    between atoms: _311  and  _312
REMARK  124  A    between atoms: _315  and  _317
REMARK  125  A    between atoms: _317  and  _318
REMARK  126  A    between atoms: _317  and  _320
REMARK  127  A    between atoms: _320  and  _321
REMARK  128  A    between atoms: _321  and  _322
REMARK  129  A    between atoms: _325  and  _327
REMARK  130  A    between atoms: _327  and  _328
REMARK  131  A    between atoms: _327  and  _330
REMARK  132  A    between atoms: _330  and  _331
REMARK  133  A    between atoms: _334  and  _336
REMARK  134  A    between atoms: _336  and  _337
REMARK  135  A    between atoms: _336  and  _339
REMARK  136  A    between atoms: _339  and  _340
REMARK  137  A    between atoms: _343  and  _345
REMARK  138  A    between atoms: _345  and  _346
REMARK  139  A    between atoms: _345  and  _348
REMARK  140  A    between atoms: _348  and  _349
REMARK  141  A    between atoms: _352  and  _354
REMARK  142  A    between atoms: _354  and  _355
REMARK  143  A    between atoms: _354  and  _357
REMARK  144  A    between atoms: _357  and  _358
REMARK  145  A    between atoms: _360  and  _362
REMARK  146  A    between atoms: _362  and  _363
REMARK  147  A    between atoms: _362  and  _365
REMARK  148  A    between atoms: _367  and  _369
REMARK  149  A    between atoms: _369  and  _370
REMARK  150  A    between atoms: _369  and  _372
REMARK  151  A    between atoms: _372  and  _373
REMARK  152  A    between atoms: _375  and  _377
REMARK  153  A    between atoms: _377  and  _378
REMARK  154  A    between atoms: _377  and  _380
REMARK  155  A    between atoms: _380  and  _381
REMARK  156  A    between atoms: _383  and  _385
REMARK  157  A    between atoms: _385  and  _386
REMARK  158  A    between atoms: _385  and  _388
REMARK  159  A    between atoms: _388  and  _389
REMARK  160  A    between atoms: _394  and  _396
REMARK  161  A    between atoms: _396  and  _397
REMARK  162  A    between atoms: _396  and  _399
REMARK  163  A    between atoms: _402  and  _404
REMARK  164  A    between atoms: _404  and  _405
REMARK  165  A    between atoms: _404  and  _407
REMARK  166  A    between atoms: _407  and  _408
REMARK  167  A    between atoms: _413  and  _414
REMARK  168  A    between atoms: _416  and  _418
REMARK  169  A    between atoms: _418  and  _419
REMARK  170  A    between atoms: _418  and  _421
REMARK  171  A    between atoms: _421  and  _422
REMARK  172  A    between atoms: _425  and  _427
REMARK  173  A    between atoms: _427  and  _428
REMARK  174  A    between atoms: _427  and  _430
REMARK  175  A    between atoms: _430  and  _431
REMARK  176  A    between atoms: _434  and  _436
REMARK  177  A    between atoms: _436  and  _437
REMARK  178  A    between atoms: _436  and  _439
REMARK  179  A    between atoms: _439  and  _440
REMARK  180  A    between atoms: _440  and  _441
REMARK  181  A    between atoms: _441  and  _442
REMARK  182  A    between atoms: _451  and  _453
REMARK  183  A    between atoms: _453  and  _454
REMARK  184  A    between atoms: _456  and  _458
REMARK  185  A    between atoms: _458  and  _459
REMARK  186  A    between atoms: _458  and  _461
REMARK  187  A    between atoms: _461  and  _462
REMARK  188  A    between atoms: _467  and  _469
REMARK  189  A    between atoms: _469  and  _470
REMARK  190  A    between atoms: _469  and  _472
REMARK  191  A    between atoms: _472  and  _473
REMARK  192  A    between atoms: _476  and  _478
REMARK  193  A    between atoms: _478  and  _479
REMARK  194  A    between atoms: _478  and  _481
REMARK  195  A    between atoms: _481  and  _482
REMARK  196  A    between atoms: _482  and  _483
REMARK  197  A    between atoms: _485  and  _487
REMARK  198  A    between atoms: _487  and  _488
REMARK  199  A    between atoms: _487  and  _490
REMARK  200  A    between atoms: _490  and  _491
REMARK  201  A    between atoms: _496  and  _497
REMARK  202  A    between atoms: _499  and  _501
REMARK  203  A    between atoms: _501  and  _502
REMARK  204  A    between atoms: _506  and  _507
REMARK  205  A    between atoms: _512  and  _514
REMARK  206  A    between atoms: _514  and  _515
REMARK  207  A    between atoms: _514  and  _517
REMARK  208  A    between atoms: _517  and  _518
REMARK  209  A    between atoms: _521  and  _523
REMARK  210  A    between atoms: _523  and  _524
REMARK  211  A    between atoms: _523  and  _526
REMARK  212  A    between atoms: _526  and  _527
REMARK  213  A    between atoms: _527  and  _528
REMARK  214  A    between atoms: _533  and  _535
REMARK  215  A    between atoms: _535  and  _536
REMARK  216  A    between atoms: _535  and  _538
REMARK  217  A    between atoms: _538  and  _539
REMARK  218  A    between atoms: _542  and  _544
REMARK  219  A    between atoms: _544  and  _545
REMARK  220  A    between atoms: _544  and  _547
REMARK  221  A    between atoms: _547  and  _548
REMARK  222  A    between atoms: _553  and  _554
REMARK  223  A    between atoms: _556  and  _558
REMARK  224  A    between atoms: _558  and  _559
REMARK  225  A    between atoms: _561  and  _563
REMARK  226  A    between atoms: _563  and  _564
REMARK  227  A    between atoms: _563  and  _566
REMARK  228  A    between atoms: _566  and  _567
REMARK  229  A    between atoms: _570  and  _572
REMARK  230  A    between atoms: _572  and  _573
REMARK  231  A    between atoms: _572  and  _575
REMARK  232  A    between atoms: _575  and  _576
REMARK  233  A    between atoms: _581  and  _583
REMARK  234  A    between atoms: _583  and  _584
REMARK  235  A    between atoms: _583  and  _586
REMARK  236  A    between atoms: _586  and  _587
REMARK  237  A    between atoms: _593  and  _595
REMARK  238  A    between atoms: _595  and  _596
REMARK  239  A    between atoms: _599  and  _601
REMARK  240  A    between atoms: _601  and  _602
REMARK  241  A    between atoms: _604  and  _606
REMARK  242  A    between atoms: _606  and  _607
REMARK  243  A    between atoms: _606  and  _609
REMARK  244  A    between atoms: _609  and  _610
REMARK  245  A    between atoms: _615  and  _616
REMARK                            x       y       z     vdW  Elec       q    Type
REMARK                         _______ _______ _______ _____ _____    ______ ____
ROOT
ATOM      1  CA  TYR A   3     -19.243  -5.064   2.670  0.00  0.00    +0.153 C 
ENDROOT
BRANCH   1   2
ATOM      2  C   TYR A   3     -19.389  -4.498   1.246  0.00  0.00    +0.241 C 
ATOM      3  N   ALA A   4     -18.265  -4.058   0.683  0.00  0.00    -0.297 N 
ATOM      4  H   ALA A   4     -17.383  -4.129   1.230  0.00  0.00    +0.150 HD
ATOM      5  O   TYR A   3     -20.486  -4.511   0.668  0.00  0.00    -0.273 OA
BRANCH   3   6
ATOM      6  CA  ALA A   4     -18.199  -3.482  -0.658  0.00  0.00    +0.149 C 
ATOM      7  CB  ALA A   4     -16.736  -3.234  -1.059  0.00  0.00    +0.031 C 
BRANCH   6   8
ATOM      8  C   ALA A   4     -18.904  -4.273  -1.769  0.00  0.00    +0.244 C 
ATOM      9  N   PRO A   5     -18.747  -5.619  -1.810  0.00  0.00    -0.272 N 
ATOM     10  CD  PRO A   5     -17.911  -6.493  -0.969  0.00  0.00    +0.094 C 
ATOM     11  CG  PRO A   5     -17.585  -7.631  -1.878  0.00  0.00    +0.024 C 
ATOM     12  CB  PRO A   5     -18.822  -7.800  -2.748  0.00  0.00    +0.031 C 
ATOM     13  CA  PRO A   5     -19.439  -6.393  -2.860  0.00  0.00    +0.152 C 
ATOM     14  O   ALA A   4     -19.554  -3.654  -2.609  0.00  0.00    -0.273 OA
BRANCH  13  15
ATOM     15  C   PRO A   5     -20.968  -6.454  -2.773  0.00  0.00    +0.241 C 
ATOM     16  N   THR A   6     -21.539  -6.115  -1.618  0.00  0.00    -0.296 N 
ATOM     17  H   THR A   6     -20.956  -5.687  -0.871  0.00  0.00    +0.150 HD
ATOM     18  O   PRO A   5     -21.612  -6.819  -3.773  0.00  0.00    -0.273 OA
BRANCH  16  19
ATOM     19  CA  THR A   6     -22.968  -6.330  -1.373  0.00  0.00    +0.164 C 
BRANCH  19  20
ATOM     20  CB  THR A   6     -23.353  -6.192   0.117  0.00  0.00    +0.136 C 
ATOM     21  CG2 THR A   6     -22.540  -7.124   1.008  0.00  0.00    +0.034 C 
BRANCH  20  22
ATOM     22  OG1 THR A   6     -23.205  -4.838   0.553  0.00  0.00    -0.382 OA
ATOM     23  HG1 THR A   6     -22.263  -4.556   0.438  0.00  0.00    +0.210 HD
ENDBRANCH  20  22
ENDBRANCH  19  20
BRANCH  19  24
ATOM     24  C   THR A   6     -23.858  -5.383  -2.191  0.00  0.00    +0.229 C 
ATOM     25  O   THR A   6     -23.465  -4.268  -2.545  0.00  0.00    -0.286 OA
ENDBRANCH  19  24
ENDBRANCH  16  19
ENDBRANCH  13  15
ENDBRANCH   6   8
ENDBRANCH   3   6
ENDBRANCH   1   2
BRANCH   1  28
ATOM     26  C   MET A   2     -17.082  -5.161   3.863  0.00  0.00    +0.241 C 
ATOM     27  O   MET A   2     -16.912  -6.353   3.629  0.00  0.00    -0.273 OA
ATOM     28  N   TYR A   3     -18.130  -4.467   3.419  0.00  0.00    -0.297 N 
ATOM     29  H   TYR A   3     -18.161  -3.446   3.614  0.00  0.00    +0.150 HD
BRANCH  26  30
ATOM     30  CA  MET A   2     -16.060  -4.393   4.700  0.00  0.00    +0.149 C 
BRANCH  30  32
ATOM     31  C   ILE A   1     -15.319  -2.628   3.152  0.00  0.00    +0.238 C 
ATOM     32  N   MET A   2     -15.922  -2.986   4.285  0.00  0.00    -0.297 N 
ATOM     33  H   MET A   2     -16.310  -2.243   4.901  0.00  0.00    +0.150 HD
ATOM     34  O   ILE A   1     -14.917  -3.433   2.317  0.00  0.00    -0.274 OA
BRANCH  31  35
ATOM     35  CA  ILE A   1     -15.144  -1.128   2.926  0.00  0.00    +0.145 C 
BRANCH  35  36
ATOM     36  N   ILE A   1     -16.383  -0.390   3.153  0.00  0.00    -0.238 NA
ATOM     37  H   ILE A   1     -16.451   0.272   3.952  0.00  0.00    +0.142 HD
ENDBRANCH  35  36
BRANCH  35  38
ATOM     38  CB  ILE A   1     -13.993  -0.595   3.814  0.00  0.00    +0.025 C 
ATOM     39  CG2 ILE A   1     -12.795  -1.527   3.720  0.00  0.00    +0.002 C 
BRANCH  38  40
ATOM     40  CG1 ILE A   1     -13.611   0.825   3.359  0.00  0.00    +0.002 C 
ATOM     41  CD1 ILE A   1     -12.755   1.595   4.336  0.00  0.00    +0.000 C 
ENDBRANCH  38  40
ENDBRANCH  35  38
ENDBRANCH  31  35
ENDBRANCH  30  32
BRANCH  30  42
ATOM     42  CB  MET A   2     -16.440  -4.488   6.182  0.00  0.00    +0.041 C 
BRANCH  42  43
ATOM     43  CG  MET A   2     -15.290  -4.185   7.154  0.00  0.00    +0.060 C 
BRANCH  43  44
ATOM     44  SD  MET A   2     -15.726  -4.456   8.887  0.00  0.00    -0.139 S 
ATOM     45  CE  MET A   2     -16.875  -3.114   9.198  0.00  0.00    +0.069 C 
ENDBRANCH  43  44
ENDBRANCH  42  43
ENDBRANCH  30  42
ENDBRANCH  26  30
ENDBRANCH   1  28
BRANCH   1  46
ATOM     46  CB  TYR A   3     -20.543  -4.846   3.455  0.00  0.00    +0.055 C 
BRANCH  46  47
ATOM     47  CG  TYR A   3     -20.598  -5.648   4.741  0.00  0.00    -0.020 A 
ATOM     48  CD2 TYR A   3     -20.550  -5.025   5.984  0.00  0.00    -0.001 A 
ATOM     49  CE2 TYR A   3     -20.609  -5.774   7.168  0.00  0.00    +0.036 A 
ATOM     50  CZ  TYR A   3     -20.698  -7.155   7.092  0.00  0.00    +0.134 A 
ATOM     51  CE1 TYR A   3     -20.746  -7.783   5.871  0.00  0.00    +0.036 A 
ATOM     52  CD1 TYR A   3     -20.703  -7.031   4.707  0.00  0.00    -0.001 A 
BRANCH  50  53
ATOM     53  OH  TYR A   3     -20.760  -7.902   8.244  0.00  0.00    -0.506 OA
ATOM     54  HH  TYR A   3     -20.820  -8.862   8.010  0.00  0.00    +0.292 HD
ENDBRANCH  50  53
ENDBRANCH  46  47
ENDBRANCH   1  46
TORSDOF 21
REMARK  Name = ../refined-set-2016/3fql/3fql_pocket.pdb
REMARK  245 active torsions:
REMARK  status: ('A' for Active; 'I' for Inactive)
REMARK    1  A    between atoms: _1  and  _3
REMARK    2  A    between atoms: _3  and  _4
REMARK    3  A    between atoms: _3  and  _6
REMARK    4  A    between atoms: _6  and  _7
REMARK    5  A    between atoms: _9  and  _11
REMARK    6  A    between atoms: _11  and  _12
REMARK    7  A    between atoms: _11  and  _14
REMARK    8  A    between atoms: _14  and  _15
REMARK    9  A    between atoms: _20  and  _21
REMARK   10  A    between atoms: _23  and  _25
REMARK   11  A    between atoms: _25  and  _26
REMARK   12  A    between atoms: _28  and  _30
REMARK   13  A    between atoms: _30  and  _31
REMARK   14  A    between atoms: _30  and  _33
REMARK   15  A    between atoms: _33  and  _34
REMARK   16  A    between atoms: _40  and  _42
REMARK   17  A    between atoms: _42  and  _43
REMARK   18  A    between atoms: _42  and  _45
REMARK   19  A    between atoms: _45  and  _46
REMARK   20  A    between atoms: _46  and  _47
REMARK   21  A    between atoms: _52  and  _54
REMARK   22  A    between atoms: _54  and  _55
REMARK   23  A    between atoms: _54  and  _57
REMARK   24  A    between atoms: _57  and  _58
REMARK   25  A    between atoms: _63  and  _64
REMARK   26  A    between atoms: _66  and  _68
REMARK   27  A    between atoms: _68  and  _69
REMARK   28  A    between atoms: _68  and  _71
REMARK   29  A    between atoms: _71  and  _72
REMARK   30  A    between atoms: _75  and  _76
REMARK   31  A    between atoms: _81  and  _83
REMARK   32  A    between atoms: _83  and  _84
REMARK   33  A    between atoms: _86  and  _88
REMARK   34  A    between atoms: _88  and  _89
REMARK   35  A    between atoms: _88  and  _91
REMARK   36  A    between atoms: _91  and  _92
REMARK   37  A    between atoms: _92  and  _93
REMARK   38  A    between atoms: _98  and  _100
REMARK   39  A    between atoms: _100  and  _101
REMARK   40  A    between atoms: _100  and  _103
REMARK   41  A    between atoms: _103  and  _104
REMARK   42  A    between atoms: _104  and  _105
REMARK   43  A    between atoms: _105  and  _106
REMARK   44  A    between atoms: _115  and  _117
REMARK   45  A    between atoms: _117  and  _118
REMARK   46  A    between atoms: _117  and  _120
REMARK   47  A    between atoms: _123  and  _125
REMARK   48  A    between atoms: _125  and  _126
REMARK   49  A    between atoms: _125  and  _128
REMARK   50  A    between atoms: _128  and  _129
REMARK   51  A    between atoms: _135  and  _137
REMARK   52  A    between atoms: _137  and  _138
REMARK   53  A    between atoms: _137  and  _140
REMARK   54  A    between atoms: _140  and  _141
REMARK   55  A    between atoms: _144  and  _146
REMARK   56  A    between atoms: _146  and  _147
REMARK   57  A    between atoms: _146  and  _149
REMARK   58  A    between atoms: _149  and  _150
REMARK   59  A    between atoms: _160  and  _162
REMARK   60  A    between atoms: _162  and  _163
REMARK   61  A    between atoms: _165  and  _167
REMARK   62  A    between atoms: _167  and  _168
REMARK   63  A    between atoms: _167  and  _170
REMARK   64  A    between atoms: _170  and  _171
REMARK   65  A    between atoms: _177  and  _179
REMARK   66  A    between atoms: _179  and  _180
REMARK   67  A    between atoms: _183  and  _185
REMARK   68  A    between atoms: _185  and  _186
REMARK   69  A    between atoms: _185  and  _188
REMARK   70  A    between atoms: _188  and  _189
REMARK   71  A    between atoms: _194  and  _195
REMARK   72  A    between atoms: _197  and  _199
REMARK   73  A    between atoms: _199  and  _200
REMARK   74  A    between atoms: _199  and  _202
REMARK   75  A    between atoms: _202  and  _203
REMARK   76  A    between atoms: _203  and  _204
REMARK   77  A    between atoms: _206  and  _208
REMARK   78  A    between atoms: _208  and  _209
REMARK   79  A    between atoms: _208  and  _211
REMARK   80  A    between atoms: _211  and  _212
REMARK   81  A    between atoms: _215  and  _217
REMARK   82  A    between atoms: _217  and  _218
REMARK   83  A    between atoms: _217  and  _220
REMARK   84  A    between atoms: _223  and  _225
REMARK   85  A    between atoms: _225  and  _226
REMARK   86  A    between atoms: _225  and  _228
REMARK   87  A    between atoms: _230  and  _232
REMARK   88  A    between atoms: _232  and  _233
REMARK   89  A    between atoms: _235  and  _237
REMARK   90  A    between atoms: _237  and  _238
REMARK   91  A    between atoms: _237  and  _240
REMARK   92  A    between atoms: _240  and  _241
REMARK   93  A    between atoms: _244  and  _246
REMARK   94  A    between atoms: _246  and  _247
REMARK   95  A    between atoms: _246  and  _249
REMARK   96  A    between atoms: _249  and  _250
REMARK   97  A    between atoms: _253  and  _255
REMARK   98  A    between atoms: _255  and  _256
REMARK   99  A    between atoms: _255  and  _258
REMARK  100  A    between atoms: _258  and  _259
REMARK  101  A    between atoms: _262  and  _264
REMARK  102  A    between atoms: _264  and  _265
REMARK  103  A    between atoms: _264  and  _267
REMARK  104  A    between atoms: _270  and  _272
REMARK  105  A    between atoms: _272  and  _273
REMARK  106  A    between atoms: _272  and  _275
REMARK  107  A    between atoms: _278  and  _280
REMARK  108  A    between atoms: _280  and  _281
REMARK  109  A    between atoms: _280  and  _283
REMARK  110  A    between atoms: _283  and  _284
REMARK  111  A    between atoms: _287  and  _289
REMARK  112  A    between atoms: _289  and  _290
REMARK  113  A    between atoms: _289  and  _292
REMARK  114  A    between atoms: _292  and  _293
REMARK  115  A    between atoms: _293  and  _294
REMARK  116  A    between atoms: _297  and  _299
REMARK  117  A    between atoms: _299  and  _300
REMARK  118  A    between atoms: _299  and  _302
REMARK  119  A    between atoms: _302  and  _303
REMARK  120  A    between atoms: _306  and  _308
REMARK  121  A    between atoms: _308  and  _309
REMARK  122  A    between atoms: _308  and  _311
REMARK  123  A    between atoms: _311  and  _312
REMARK  124  A    between atoms: _315  and  _317
REMARK  125  A    between atoms: _317  and  _318
REMARK  126  A    between atoms: _317  and  _320
REMARK  127  A    between atoms: _320  and  _321
REMARK  128  A    between atoms: _321  and  _322
REMARK  129  A    between atoms: _325  and  _327
REMARK  130  A    between atoms: _327  and  _328
REMARK  131  A    between atoms: _327  and  _330
REMARK  132  A    between atoms: _330  and  _331
REMARK  133  A    between atoms: _334  and  _336
REMARK  134  A    between atoms: _336  and  _337
REMARK  135  A    between atoms: _336  and  _339
REMARK  136  A    between atoms: _339  and  _340
REMARK  137  A    between atoms: _343  and  _345
REMARK  138  A    between atoms: _345  and  _346
REMARK  139  A    between atoms: _345  and  _348
REMARK  140  A    between atoms: _348  and  _349
REMARK  141  A    between atoms: _352  and  _354
REMARK  142  A    between atoms: _354  and  _355
REMARK  143  A    between atoms: _354  and  _357
REMARK  144  A    between atoms: _357  and  _358
REMARK  145  A    between atoms: _360  and  _362
REMARK  146  A    between atoms: _362  and  _363
REMARK  147  A    between atoms: _362  and  _365
REMARK  148  A    between atoms: _367  and  _369
REMARK  149  A    between atoms: _369  and  _370
REMARK  150  A    between atoms: _369  and  _372
REMARK  151  A    between atoms: _372  and  _373
REMARK  152  A    between atoms: _375  and  _377
REMARK  153  A    between atoms: _377  and  _378
REMARK  154  A    between atoms: _377  and  _380
REMARK  155  A    between atoms: _380  and  _381
REMARK  156  A    between atoms: _383  and  _385
REMARK  157  A    between atoms: _385  and  _386
REMARK  158  A    between atoms: _385  and  _388
REMARK  159  A    between atoms: _388  and  _389
REMARK  160  A    between atoms: _394  and  _396
REMARK  161  A    between atoms: _396  and  _397
REMARK  162  A    between atoms: _396  and  _399
REMARK  163  A    between atoms: _402  and  _404
REMARK  164  A    between atoms: _404  and  _405
REMARK  165  A    between atoms: _404  and  _407
REMARK  166  A    between atoms: _407  and  _408
REMARK  167  A    between atoms: _413  and  _414
REMARK  168  A    between atoms: _416  and  _418
REMARK  169  A    between atoms: _418  and  _419
REMARK  170  A    between atoms: _418  and  _421
REMARK  171  A    between atoms: _421  and  _422
REMARK  172  A    between atoms: _425  and  _427
REMARK  173  A    between atoms: _427  and  _428
REMARK  174  A    between atoms: _427  and  _430
REMARK  175  A    between atoms: _430  and  _431
REMARK  176  A    between atoms: _434  and  _436
REMARK  177  A    between atoms: _436  and  _437
REMARK  178  A    between atoms: _436  and  _439
REMARK  179  A    between atoms: _439  and  _440
REMARK  180  A    between atoms: _440  and  _441
REMARK  181  A    between atoms: _441  and  _442
REMARK  182  A    between atoms: _451  and  _453
REMARK  183  A    between atoms: _453  and  _454
REMARK  184  A    between atoms: _456  and  _458
REMARK  185  A    between atoms: _458  and  _459
REMARK  186  A    between atoms: _458  and  _461
REMARK  187  A    between atoms: _461  and  _462
REMARK  188  A    between atoms: _467  and  _469
REMARK  189  A    between atoms: _469  and  _470
REMARK  190  A    between atoms: _469  and  _472
REMARK  191  A    between atoms: _472  and  _473
REMARK  192  A    between atoms: _476  and  _478
REMARK  193  A    between atoms: _478  and  _479
REMARK  194  A    between atoms: _478  and  _481
REMARK  195  A    between atoms: _481  and  _482
REMARK  196  A    between atoms: _482  and  _483
REMARK  197  A    between atoms: _485  and  _487
REMARK  198  A    between atoms: _487  and  _488
REMARK  199  A    between atoms: _487  and  _490
REMARK  200  A    between atoms: _490  and  _491
REMARK  201  A    between atoms: _496  and  _497
REMARK  202  A    between atoms: _499  and  _501
REMARK  203  A    between atoms: _501  and  _502
REMARK  204  A    between atoms: _506  and  _507
REMARK  205  A    between atoms: _512  and  _514
REMARK  206  A    between atoms: _514  and  _515
REMARK  207  A    between atoms: _514  and  _517
REMARK  208  A    between atoms: _517  and  _518
REMARK  209  A    between atoms: _521  and  _523
REMARK  210  A    between atoms: _523  and  _524
REMARK  211  A    between atoms: _523  and  _526
REMARK  212  A    between atoms: _526  and  _527
REMARK  213  A    between atoms: _527  and  _528
REMARK  214  A    between atoms: _533  and  _535
REMARK  215  A    between atoms: _535  and  _536
REMARK  216  A    between atoms: _535  and  _538
REMARK  217  A    between atoms: _538  and  _539
REMARK  218  A    between atoms: _542  and  _544
REMARK  219  A    between atoms: _544  and  _545
REMARK  220  A    between atoms: _544  and  _547
REMARK  221  A    between atoms: _547  and  _548
REMARK  222  A    between atoms: _553  and  _554
REMARK  223  A    between atoms: _556  and  _558
REMARK  224  A    between atoms: _558  and  _559
REMARK  225  A    between atoms: _561  and  _563
REMARK  226  A    between atoms: _563  and  _564
REMARK  227  A    between atoms: _563  and  _566
REMARK  228  A    between atoms: _566  and  _567
REMARK  229  A    between atoms: _570  and  _572
REMARK  230  A    between atoms: _572  and  _573
REMARK  231  A    between atoms: _572  and  _575
REMARK  232  A    between atoms: _575  and  _576
REMARK  233  A    between atoms: _581  and  _583
REMARK  234  A    between atoms: _583  and  _584
REMARK  235  A    between atoms: _583  and  _586
REMARK  236  A    between atoms: _586  and  _587
REMARK  237  A    between atoms: _593  and  _595
REMARK  238  A    between atoms: _595  and  _596
REMARK  239  A    between atoms: _599  and  _601
REMARK  240  A    between atoms: _601  and  _602
REMARK  241  A    between atoms: _604  and  _606
REMARK  242  A    between atoms: _606  and  _607
REMARK  243  A    between atoms: _606  and  _609
REMARK  244  A    between atoms: _609  and  _610
REMARK  245  A    between atoms: _615  and  _616
REMARK                            x       y       z     vdW  Elec       q    Type
REMARK                         _______ _______ _______ _____ _____    ______ ____
ROOT
ATOM      1  C   ILE A   2     -11.873  -3.220  11.621  0.00  0.00    +0.241 C 
ATOM      2  O   ILE A   2     -10.830  -3.010  12.258  0.00  0.00    -0.273 OA
ATOM      3  N   TYR A   3     -12.624  -4.305  11.793  0.00  0.00    -0.297 N 
ATOM      4  H   TYR A   3     -13.467  -4.431  11.197  0.00  0.00    +0.150 HD
ENDROOT
BRANCH   3   5
ATOM      5  CA  TYR A   3     -12.304  -5.335  12.797  0.00  0.00    +0.153 C 
BRANCH   5   6
ATOM      6  C   TYR A   3     -12.113  -4.690  14.189  0.00  0.00    +0.241 C 
ATOM      7  O   TYR A   3     -11.220  -5.074  14.943  0.00  0.00    -0.273 OA
ATOM      8  N   GLY A   4     -12.927  -3.680  14.496  0.00  0.00    -0.296 N 
ATOM      9  H   GLY A   4     -13.589  -3.335  13.772  0.00  0.00    +0.150 HD
BRANCH   8  10
ATOM     10  CA  GLY A   4     -12.927  -3.033  15.819  0.00  0.00    +0.163 C 
BRANCH  10  11
ATOM     11  C   GLY A   4     -11.790  -2.063  16.131  0.00  0.00    +0.229 C 
ATOM     12  O   GLY A   4     -11.747  -1.507  17.232  0.00  0.00    -0.286 OA
ENDBRANCH  10  11
ENDBRANCH   8  10
ENDBRANCH   5   6
BRANCH   5  13
ATOM     13  CB  TYR A   3     -11.045  -6.142  12.407  0.00  0.00    +0.055 C 
BRANCH  13  14
ATOM     14  CG  TYR A   3     -11.074  -6.912  11.081  0.00  0.00    -0.020 A 
ATOM     15  CD2 TYR A   3      -9.970  -7.669  10.681  0.00  0.00    -0.001 A 
ATOM     16  CE2 TYR A   3      -9.978  -8.388   9.486  0.00  0.00    +0.036 A 
ATOM     17  CZ  TYR A   3     -11.099  -8.355   8.674  0.00  0.00    +0.134 A 
ATOM     18  CE1 TYR A   3     -12.201  -7.619   9.056  0.00  0.00    +0.036 A 
ATOM     19  CD1 TYR A   3     -12.190  -6.912  10.250  0.00  0.00    -0.001 A 
BRANCH  17  20
ATOM     20  OH  TYR A   3     -11.128  -9.038   7.477  0.00  0.00    -0.506 OA
ATOM     21  HH  TYR A   3     -10.994 -10.004   7.646  0.00  0.00    +0.292 HD
ENDBRANCH  17  20
ENDBRANCH  13  14
ENDBRANCH   5  13
ENDBRANCH   3   5
BRANCH   1  22
ATOM     22  CA  ILE A   2     -12.384  -2.189  10.612  0.00  0.00    +0.148 C 
BRANCH  22  24
ATOM     23  C   GLN A   1     -13.577  -0.173  11.325  0.00  0.00    +0.238 C 
ATOM     24  N   ILE A   2     -12.478  -0.922  11.316  0.00  0.00    -0.297 N 
ATOM     25  H   ILE A   2     -11.645  -0.584  11.839  0.00  0.00    +0.150 HD
ATOM     26  O   GLN A   1     -14.575  -0.395  10.629  0.00  0.00    -0.274 OA
BRANCH  23  27
ATOM     27  CA  GLN A   1     -13.519   1.039  12.239  0.00  0.00    +0.145 C 
BRANCH  27  28
ATOM     28  N   GLN A   1     -13.985   2.240  11.560  0.00  0.00    -0.238 NA
ATOM     29  H   GLN A   1     -14.949   2.265  11.169  0.00  0.00    +0.142 HD
ENDBRANCH  27  28
BRANCH  27  30
ATOM     30  CB  GLN A   1     -14.329   0.778  13.503  0.00  0.00    +0.036 C 
BRANCH  30  31
ATOM     31  CG  GLN A   1     -14.101   1.819  14.586  0.00  0.00    +0.087 C 
BRANCH  31  32
ATOM     32  CD  GLN A   1     -14.661   1.421  15.945  0.00  0.00    +0.219 C 
ATOM     33  OE1 GLN A   1     -14.180   1.877  16.989  0.00  0.00    -0.275 OA
ATOM     34  NE2 GLN A   1     -15.681   0.578  15.941  0.00  0.00    -0.329 N 
ATOM     35 HE21 GLN A   1     -16.109   0.275  16.839  0.00  0.00    +0.145 HD
ATOM     36 HE22 GLN A   1     -16.055   0.218  15.040  0.00  0.00    +0.145 HD
ENDBRANCH  31  32
ENDBRANCH  30  31
ENDBRANCH  27  30
ENDBRANCH  23  27
ENDBRANCH  22  24
BRANCH  22  37
ATOM     37  CB  ILE A   2     -11.433  -2.077   9.418  0.00  0.00    +0.027 C 
ATOM     38  CG2 ILE A   2     -11.249  -3.442   8.750  0.00  0.00    +0.002 C 
BRANCH  37  39
ATOM     39  CG1 ILE A   2     -11.950  -1.004   8.445  0.00  0.00    +0.002 C 
ATOM     40  CD1 ILE A   2     -11.039  -0.763   7.247  0.00  0.00    +0.000 C 
ENDBRANCH  37  39
ENDBRANCH  22  37
ENDBRANCH   1  22
TORSDOF 16
REMARK  Name = ../refined-set-2016/3fql/3fql_pocket.pdb
REMARK  245 active torsions:
REMARK  status: ('A' for Active; 'I' for Inactive)
REMARK    1  A    between atoms: _1  and  _3
REMARK    2  A    between atoms: _3  and  _4
REMARK    3  A    between atoms: _3  and  _6
REMARK    4  A    between atoms: _6  and  _7
REMARK    5  A    between atoms: _9  and  _11
REMARK    6  A    between atoms: _11  and  _12
REMARK    7  A    between atoms: _11  and  _14
REMARK    8  A    between atoms: _14  and  _15
REMARK    9  A    between atoms: _20  and  _21
REMARK   10  A    between atoms: _23  and  _25
REMARK   11  A    between atoms: _25  and  _26
REMARK   12  A    between atoms: _28  and  _30
REMARK   13  A    between atoms: _30  and  _31
REMARK   14  A    between atoms: _30  and  _33
REMARK   15  A    between atoms: _33  and  _34
REMARK   16  A    between atoms: _40  and  _42
REMARK   17  A    between atoms: _42  and  _43
REMARK   18  A    between atoms: _42  and  _45
REMARK   19  A    between atoms: _45  and  _46
REMARK   20  A    between atoms: _46  and  _47
REMARK   21  A    between atoms: _52  and  _54
REMARK   22  A    between atoms: _54  and  _55
REMARK   23  A    between atoms: _54  and  _57
REMARK   24  A    between atoms: _57  and  _58
REMARK   25  A    between atoms: _63  and  _64
REMARK   26  A    between atoms: _66  and  _68
REMARK   27  A    between atoms: _68  and  _69
REMARK   28  A    between atoms: _68  and  _71
REMARK   29  A    between atoms: _71  and  _72
REMARK   30  A    between atoms: _75  and  _76
REMARK   31  A    between atoms: _81  and  _83
REMARK   32  A    between atoms: _83  and  _84
REMARK   33  A    between atoms: _86  and  _88
REMARK   34  A    between atoms: _88  and  _89
REMARK   35  A    between atoms: _88  and  _91
REMARK   36  A    between atoms: _91  and  _92
REMARK   37  A    between atoms: _92  and  _93
REMARK   38  A    between atoms: _98  and  _100
REMARK   39  A    between atoms: _100  and  _101
REMARK   40  A    between atoms: _100  and  _103
REMARK   41  A    between atoms: _103  and  _104
REMARK   42  A    between atoms: _104  and  _105
REMARK   43  A    between atoms: _105  and  _106
REMARK   44  A    between atoms: _115  and  _117
REMARK   45  A    between atoms: _117  and  _118
REMARK   46  A    between atoms: _117  and  _120
REMARK   47  A    between atoms: _123  and  _125
REMARK   48  A    between atoms: _125  and  _126
REMARK   49  A    between atoms: _125  and  _128
REMARK   50  A    between atoms: _128  and  _129
REMARK   51  A    between atoms: _135  and  _137
REMARK   52  A    between atoms: _137  and  _138
REMARK   53  A    between atoms: _137  and  _140
REMARK   54  A    between atoms: _140  and  _141
REMARK   55  A    between atoms: _144  and  _146
REMARK   56  A    between atoms: _146  and  _147
REMARK   57  A    between atoms: _146  and  _149
REMARK   58  A    between atoms: _149  and  _150
REMARK   59  A    between atoms: _160  and  _162
REMARK   60  A    between atoms: _162  and  _163
REMARK   61  A    between atoms: _165  and  _167
REMARK   62  A    between atoms: _167  and  _168
REMARK   63  A    between atoms: _167  and  _170
REMARK   64  A    between atoms: _170  and  _171
REMARK   65  A    between atoms: _177  and  _179
REMARK   66  A    between atoms: _179  and  _180
REMARK   67  A    between atoms: _183  and  _185
REMARK   68  A    between atoms: _185  and  _186
REMARK   69  A    between atoms: _185  and  _188
REMARK   70  A    between atoms: _188  and  _189
REMARK   71  A    between atoms: _194  and  _195
REMARK   72  A    between atoms: _197  and  _199
REMARK   73  A    between atoms: _199  and  _200
REMARK   74  A    between atoms: _199  and  _202
REMARK   75  A    between atoms: _202  and  _203
REMARK   76  A    between atoms: _203  and  _204
REMARK   77  A    between atoms: _206  and  _208
REMARK   78  A    between atoms: _208  and  _209
REMARK   79  A    between atoms: _208  and  _211
REMARK   80  A    between atoms: _211  and  _212
REMARK   81  A    between atoms: _215  and  _217
REMARK   82  A    between atoms: _217  and  _218
REMARK   83  A    between atoms: _217  and  _220
REMARK   84  A    between atoms: _223  and  _225
REMARK   85  A    between atoms: _225  and  _226
REMARK   86  A    between atoms: _225  and  _228
REMARK   87  A    between atoms: _230  and  _232
REMARK   88  A    between atoms: _232  and  _233
REMARK   89  A    between atoms: _235  and  _237
REMARK   90  A    between atoms: _237  and  _238
REMARK   91  A    between atoms: _237  and  _240
REMARK   92  A    between atoms: _240  and  _241
REMARK   93  A    between atoms: _244  and  _246
REMARK   94  A    between atoms: _246  and  _247
REMARK   95  A    between atoms: _246  and  _249
REMARK   96  A    between atoms: _249  and  _250
REMARK   97  A    between atoms: _253  and  _255
REMARK   98  A    between atoms: _255  and  _256
REMARK   99  A    between atoms: _255  and  _258
REMARK  100  A    between atoms: _258  and  _259
REMARK  101  A    between atoms: _262  and  _264
REMARK  102  A    between atoms: _264  and  _265
REMARK  103  A    between atoms: _264  and  _267
REMARK  104  A    between atoms: _270  and  _272
REMARK  105  A    between atoms: _272  and  _273
REMARK  106  A    between atoms: _272  and  _275
REMARK  107  A    between atoms: _278  and  _280
REMARK  108  A    between atoms: _280  and  _281
REMARK  109  A    between atoms: _280  and  _283
REMARK  110  A    between atoms: _283  and  _284
REMARK  111  A    between atoms: _287  and  _289
REMARK  112  A    between atoms: _289  and  _290
REMARK  113  A    between atoms: _289  and  _292
REMARK  114  A    between atoms: _292  and  _293
REMARK  115  A    between atoms: _293  and  _294
REMARK  116  A    between atoms: _297  and  _299
REMARK  117  A    between atoms: _299  and  _300
REMARK  118  A    between atoms: _299  and  _302
REMARK  119  A    between atoms: _302  and  _303
REMARK  120  A    between atoms: _306  and  _308
REMARK  121  A    between atoms: _308  and  _309
REMARK  122  A    between atoms: _308  and  _311
REMARK  123  A    between atoms: _311  and  _312
REMARK  124  A    between atoms: _315  and  _317
REMARK  125  A    between atoms: _317  and  _318
REMARK  126  A    between atoms: _317  and  _320
REMARK  127  A    between atoms: _320  and  _321
REMARK  128  A    between atoms: _321  and  _322
REMARK  129  A    between atoms: _325  and  _327
REMARK  130  A    between atoms: _327  and  _328
REMARK  131  A    between atoms: _327  and  _330
REMARK  132  A    between atoms: _330  and  _331
REMARK  133  A    between atoms: _334  and  _336
REMARK  134  A    between atoms: _336  and  _337
REMARK  135  A    between atoms: _336  and  _339
REMARK  136  A    between atoms: _339  and  _340
REMARK  137  A    between atoms: _343  and  _345
REMARK  138  A    between atoms: _345  and  _346
REMARK  139  A    between atoms: _345  and  _348
REMARK  140  A    between atoms: _348  and  _349
REMARK  141  A    between atoms: _352  and  _354
REMARK  142  A    between atoms: _354  and  _355
REMARK  143  A    between atoms: _354  and  _357
REMARK  144  A    between atoms: _357  and  _358
REMARK  145  A    between atoms: _360  and  _362
REMARK  146  A    between atoms: _362  and  _363
REMARK  147  A    between atoms: _362  and  _365
REMARK  148  A    between atoms: _367  and  _369
REMARK  149  A    between atoms: _369  and  _370
REMARK  150  A    between atoms: _369  and  _372
REMARK  151  A    between atoms: _372  and  _373
REMARK  152  A    between atoms: _375  and  _377
REMARK  153  A    between atoms: _377  and  _378
REMARK  154  A    between atoms: _377  and  _380
REMARK  155  A    between atoms: _380  and  _381
REMARK  156  A    between atoms: _383  and  _385
REMARK  157  A    between atoms: _385  and  _386
REMARK  158  A    between atoms: _385  and  _388
REMARK  159  A    between atoms: _388  and  _389
REMARK  160  A    between atoms: _394  and  _396
REMARK  161  A    between atoms: _396  and  _397
REMARK  162  A    between atoms: _396  and  _399
REMARK  163  A    between atoms: _402  and  _404
REMARK  164  A    between atoms: _404  and  _405
REMARK  165  A    between atoms: _404  and  _407
REMARK  166  A    between atoms: _407  and  _408
REMARK  167  A    between atoms: _413  and  _414
REMARK  168  A    between atoms: _416  and  _418
REMARK  169  A    between atoms: _418  and  _419
REMARK  170  A    between atoms: _418  and  _421
REMARK  171  A    between atoms: _421  and  _422
REMARK  172  A    between atoms: _425  and  _427
REMARK  173  A    between atoms: _427  and  _428
REMARK  174  A    between atoms: _427  and  _430
REMARK  175  A    between atoms: _430  and  _431
REMARK  176  A    between atoms: _434  and  _436
REMARK  177  A    between atoms: _436  and  _437
REMARK  178  A    between atoms: _436  and  _439
REMARK  179  A    between atoms: _439  and  _440
REMARK  180  A    between atoms: _440  and  _441
REMARK  181  A    between atoms: _441  and  _442
REMARK  182  A    between atoms: _451  and  _453
REMARK  183  A    between atoms: _453  and  _454
REMARK  184  A    between atoms: _456  and  _458
REMARK  185  A    between atoms: _458  and  _459
REMARK  186  A    between atoms: _458  and  _461
REMARK  187  A    between atoms: _461  and  _462
REMARK  188  A    between atoms: _467  and  _469
REMARK  189  A    between atoms: _469  and  _470
REMARK  190  A    between atoms: _469  and  _472
REMARK  191  A    between atoms: _472  and  _473
REMARK  192  A    between atoms: _476  and  _478
REMARK  193  A    between atoms: _478  and  _479
REMARK  194  A    between atoms: _478  and  _481
REMARK  195  A    between atoms: _481  and  _482
REMARK  196  A    between atoms: _482  and  _483
REMARK  197  A    between atoms: _485  and  _487
REMARK  198  A    between atoms: _487  and  _488
REMARK  199  A    between atoms: _487  and  _490
REMARK  200  A    between atoms: _490  and  _491
REMARK  201  A    between atoms: _496  and  _497
REMARK  202  A    between atoms: _499  and  _501
REMARK  203  A    between atoms: _501  and  _502
REMARK  204  A    between atoms: _506  and  _507
REMARK  205  A    between atoms: _512  and  _514
REMARK  206  A    between atoms: _514  and  _515
REMARK  207  A    between atoms: _514  and  _517
REMARK  208  A    between atoms: _517  and  _518
REMARK  209  A    between atoms: _521  and  _523
REMARK  210  A    between atoms: _523  and  _524
REMARK  211  A    between atoms: _523  and  _526
REMARK  212  A    between atoms: _526  and  _527
REMARK  213  A    between atoms: _527  and  _528
REMARK  214  A    between atoms: _533  and  _535
REMARK  215  A    between atoms: _535  and  _536
REMARK  216  A    between atoms: _535  and  _538
REMARK  217  A    between atoms: _538  and  _539
REMARK  218  A    between atoms: _542  and  _544
REMARK  219  A    between atoms: _544  and  _545
REMARK  220  A    between atoms: _544  and  _547
REMARK  221  A    between atoms: _547  and  _548
REMARK  222  A    between atoms: _553  and  _554
REMARK  223  A    between atoms: _556  and  _558
REMARK  224  A    between atoms: _558  and  _559
REMARK  225  A    between atoms: _561  and  _563
REMARK  226  A    between atoms: _563  and  _564
REMARK  227  A    between atoms: _563  and  _566
REMARK  228  A    between atoms: _566  and  _567
REMARK  229  A    between atoms: _570  and  _572
REMARK  230  A    between atoms: _572  and  _573
REMARK  231  A    between atoms: _572  and  _575
REMARK  232  A    between atoms: _575  and  _576
REMARK  233  A    between atoms: _581  and  _583
REMARK  234  A    between atoms: _583  and  _584
REMARK  235  A    between atoms: _583  and  _586
REMARK  236  A    between atoms: _586  and  _587
REMARK  237  A    between atoms: _593  and  _595
REMARK  238  A    between atoms: _595  and  _596
REMARK  239  A    between atoms: _599  and  _601
REMARK  240  A    between atoms: _601  and  _602
REMARK  241  A    between atoms: _604  and  _606
REMARK  242  A    between atoms: _606  and  _607
REMARK  243  A    between atoms: _606  and  _609
REMARK  244  A    between atoms: _609  and  _610
REMARK  245  A    between atoms: _615  and  _616
REMARK                            x       y       z     vdW  Elec       q    Type
REMARK                         _______ _______ _______ _____ _____    ______ ____
ROOT
ATOM      1  C   LEU A   1     -10.629  -7.480  -0.395  0.00  0.00    +0.238 C 
ATOM      2  O   LEU A   1     -10.898  -8.489   0.253  0.00  0.00    -0.274 OA
ATOM      3  N   HIS A   2     -11.158  -7.225  -1.589  0.00  0.00    -0.298 N 
ATOM      4  H   HIS A   2     -10.791  -6.419  -2.134  0.00  0.00    +0.150 HD
ENDROOT
BRANCH   1   5
ATOM      5  CA  LEU A   1      -9.649  -6.450   0.180  0.00  0.00    +0.145 C 
BRANCH   5   6
ATOM      6  N   LEU A   1      -8.972  -5.638  -0.836  0.00  0.00    -0.238 NA
ATOM      7  H   LEU A   1      -9.377  -4.718  -1.104  0.00  0.00    +0.142 HD
ENDBRANCH   5   6
BRANCH   5   8
ATOM      8  CB  LEU A   1     -10.397  -5.573   1.176  0.00  0.00    +0.026 C 
BRANCH   8   9
ATOM      9  CG  LEU A   1      -9.687  -4.501   2.010  0.00  0.00    +0.002 C 
ATOM     10  CD2 LEU A   1     -10.356  -4.352   3.398  0.00  0.00    +0.000 C 
ATOM     11  CD1 LEU A   1      -8.184  -4.684   2.127  0.00  0.00    +0.000 C 
ENDBRANCH   8   9
ENDBRANCH   5   8
ENDBRANCH   1   5
BRANCH   3  12
ATOM     12  CA  HIS A   2     -12.243  -8.036  -2.173  0.00  0.00    +0.143 C 
BRANCH  12  13
ATOM     13  C   HIS A   2     -11.957  -8.558  -3.581  0.00  0.00    +0.227 C 
ATOM     14  O   HIS A   2     -12.599  -9.504  -4.029  0.00  0.00    -0.286 OA
ENDBRANCH  12  13
BRANCH  12  15
ATOM     15  CB  HIS A   2     -13.543  -7.229  -2.229  0.00  0.00    +0.075 C 
BRANCH  15  16
ATOM     16  CG  HIS A   2     -14.043  -6.790  -0.892  0.00  0.00    +0.082 A 
ATOM     17  ND1 HIS A   2     -14.734  -7.629  -0.039  0.00  0.00    -0.227 NA
ATOM     18  CE1 HIS A   2     -15.052  -6.966   1.056  0.00  0.00    +0.199 A 
ATOM     19  NE2 HIS A   2     -14.603  -5.729   0.943  0.00  0.00    -0.221 NA
ATOM     20  CD2 HIS A   2     -13.969  -5.593  -0.267  0.00  0.00    +0.115 A 
ENDBRANCH  15  16
ENDBRANCH  12  15
ENDBRANCH   3  12
TORSDOF 8
REMARK  Name = ../refined-set-2016/3fql/3fql_pocket.pdb
REMARK  245 active torsions:
REMARK  status: ('A' for Active; 'I' for Inactive)
REMARK    1  A    between atoms: _1  and  _3
REMARK    2  A    between atoms: _3  and  _4
REMARK    3  A    between atoms: _3  and  _6
REMARK    4  A    between atoms: _6  and  _7
REMARK    5  A    between atoms: _9  and  _11
REMARK    6  A    between atoms: _11  and  _12
REMARK    7  A    between atoms: _11  and  _14
REMARK    8  A    between atoms: _14  and  _15
REMARK    9  A    between atoms: _20  and  _21
REMARK   10  A    between atoms: _23  and  _25
REMARK   11  A    between atoms: _25  and  _26
REMARK   12  A    between atoms: _28  and  _30
REMARK   13  A    between atoms: _30  and  _31
REMARK   14  A    between atoms: _30  and  _33
REMARK   15  A    between atoms: _33  and  _34
REMARK   16  A    between atoms: _40  and  _42
REMARK   17  A    between atoms: _42  and  _43
REMARK   18  A    between atoms: _42  and  _45
REMARK   19  A    between atoms: _45  and  _46
REMARK   20  A    between atoms: _46  and  _47
REMARK   21  A    between atoms: _52  and  _54
REMARK   22  A    between atoms: _54  and  _55
REMARK   23  A    between atoms: _54  and  _57
REMARK   24  A    between atoms: _57  and  _58
REMARK   25  A    between atoms: _63  and  _64
REMARK   26  A    between atoms: _66  and  _68
REMARK   27  A    between atoms: _68  and  _69
REMARK   28  A    between atoms: _68  and  _71
REMARK   29  A    between atoms: _71  and  _72
REMARK   30  A    between atoms: _75  and  _76
REMARK   31  A    between atoms: _81  and  _83
REMARK   32  A    between atoms: _83  and  _84
REMARK   33  A    between atoms: _86  and  _88
REMARK   34  A    between atoms: _88  and  _89
REMARK   35  A    between atoms: _88  and  _91
REMARK   36  A    between atoms: _91  and  _92
REMARK   37  A    between atoms: _92  and  _93
REMARK   38  A    between atoms: _98  and  _100
REMARK   39  A    between atoms: _100  and  _101
REMARK   40  A    between atoms: _100  and  _103
REMARK   41  A    between atoms: _103  and  _104
REMARK   42  A    between atoms: _104  and  _105
REMARK   43  A    between atoms: _105  and  _106
REMARK   44  A    between atoms: _115  and  _117
REMARK   45  A    between atoms: _117  and  _118
REMARK   46  A    between atoms: _117  and  _120
REMARK   47  A    between atoms: _123  and  _125
REMARK   48  A    between atoms: _125  and  _126
REMARK   49  A    between atoms: _125  and  _128
REMARK   50  A    between atoms: _128  and  _129
REMARK   51  A    between atoms: _135  and  _137
REMARK   52  A    between atoms: _137  and  _138
REMARK   53  A    between atoms: _137  and  _140
REMARK   54  A    between atoms: _140  and  _141
REMARK   55  A    between atoms: _144  and  _146
REMARK   56  A    between atoms: _146  and  _147
REMARK   57  A    between atoms: _146  and  _149
REMARK   58  A    between atoms: _149  and  _150
REMARK   59  A    between atoms: _160  and  _162
REMARK   60  A    between atoms: _162  and  _163
REMARK   61  A    between atoms: _165  and  _167
REMARK   62  A    between atoms: _167  and  _168
REMARK   63  A    between atoms: _167  and  _170
REMARK   64  A    between atoms: _170  and  _171
REMARK   65  A    between atoms: _177  and  _179
REMARK   66  A    between atoms: _179  and  _180
REMARK   67  A    between atoms: _183  and  _185
REMARK   68  A    between atoms: _185  and  _186
REMARK   69  A    between atoms: _185  and  _188
REMARK   70  A    between atoms: _188  and  _189
REMARK   71  A    between atoms: _194  and  _195
REMARK   72  A    between atoms: _197  and  _199
REMARK   73  A    between atoms: _199  and  _200
REMARK   74  A    between atoms: _199  and  _202
REMARK   75  A    between atoms: _202  and  _203
REMARK   76  A    between atoms: _203  and  _204
REMARK   77  A    between atoms: _206  and  _208
REMARK   78  A    between atoms: _208  and  _209
REMARK   79  A    between atoms: _208  and  _211
REMARK   80  A    between atoms: _211  and  _212
REMARK   81  A    between atoms: _215  and  _217
REMARK   82  A    between atoms: _217  and  _218
REMARK   83  A    between atoms: _217  and  _220
REMARK   84  A    between atoms: _223  and  _225
REMARK   85  A    between atoms: _225  and  _226
REMARK   86  A    between atoms: _225  and  _228
REMARK   87  A    between atoms: _230  and  _232
REMARK   88  A    between atoms: _232  and  _233
REMARK   89  A    between atoms: _235  and  _237
REMARK   90  A    between atoms: _237  and  _238
REMARK   91  A    between atoms: _237  and  _240
REMARK   92  A    between atoms: _240  and  _241
REMARK   93  A    between atoms: _244  and  _246
REMARK   94  A    between atoms: _246  and  _247
REMARK   95  A    between atoms: _246  and  _249
REMARK   96  A    between atoms: _249  and  _250
REMARK   97  A    between atoms: _253  and  _255
REMARK   98  A    between atoms: _255  and  _256
REMARK   99  A    between atoms: _255  and  _258
REMARK  100  A    between atoms: _258  and  _259
REMARK  101  A    between atoms: _262  and  _264
REMARK  102  A    between atoms: _264  and  _265
REMARK  103  A    between atoms: _264  and  _267
REMARK  104  A    between atoms: _270  and  _272
REMARK  105  A    between atoms: _272  and  _273
REMARK  106  A    between atoms: _272  and  _275
REMARK  107  A    between atoms: _278  and  _280
REMARK  108  A    between atoms: _280  and  _281
REMARK  109  A    between atoms: _280  and  _283
REMARK  110  A    between atoms: _283  and  _284
REMARK  111  A    between atoms: _287  and  _289
REMARK  112  A    between atoms: _289  and  _290
REMARK  113  A    between atoms: _289  and  _292
REMARK  114  A    between atoms: _292  and  _293
REMARK  115  A    between atoms: _293  and  _294
REMARK  116  A    between atoms: _297  and  _299
REMARK  117  A    between atoms: _299  and  _300
REMARK  118  A    between atoms: _299  and  _302
REMARK  119  A    between atoms: _302  and  _303
REMARK  120  A    between atoms: _306  and  _308
REMARK  121  A    between atoms: _308  and  _309
REMARK  122  A    between atoms: _308  and  _311
REMARK  123  A    between atoms: _311  and  _312
REMARK  124  A    between atoms: _315  and  _317
REMARK  125  A    between atoms: _317  and  _318
REMARK  126  A    between atoms: _317  and  _320
REMARK  127  A    between atoms: _320  and  _321
REMARK  128  A    between atoms: _321  and  _322
REMARK  129  A    between atoms: _325  and  _327
REMARK  130  A    between atoms: _327  and  _328
REMARK  131  A    between atoms: _327  and  _330
REMARK  132  A    between atoms: _330  and  _331
REMARK  133  A    between atoms: _334  and  _336
REMARK  134  A    between atoms: _336  and  _337
REMARK  135  A    between atoms: _336  and  _339
REMARK  136  A    between atoms: _339  and  _340
REMARK  137  A    between atoms: _343  and  _345
REMARK  138  A    between atoms: _345  and  _346
REMARK  139  A    between atoms: _345  and  _348
REMARK  140  A    between atoms: _348  and  _349
REMARK  141  A    between atoms: _352  and  _354
REMARK  142  A    between atoms: _354  and  _355
REMARK  143  A    between atoms: _354  and  _357
REMARK  144  A    between atoms: _357  and  _358
REMARK  145  A    between atoms: _360  and  _362
REMARK  146  A    between atoms: _362  and  _363
REMARK  147  A    between atoms: _362  and  _365
REMARK  148  A    between atoms: _367  and  _369
REMARK  149  A    between atoms: _369  and  _370
REMARK  150  A    between atoms: _369  and  _372
REMARK  151  A    between atoms: _372  and  _373
REMARK  152  A    between atoms: _375  and  _377
REMARK  153  A    between atoms: _377  and  _378
REMARK  154  A    between atoms: _377  and  _380
REMARK  155  A    between atoms: _380  and  _381
REMARK  156  A    between atoms: _383  and  _385
REMARK  157  A    between atoms: _385  and  _386
REMARK  158  A    between atoms: _385  and  _388
REMARK  159  A    between atoms: _388  and  _389
REMARK  160  A    between atoms: _394  and  _396
REMARK  161  A    between atoms: _396  and  _397
REMARK  162  A    between atoms: _396  and  _399
REMARK  163  A    between atoms: _402  and  _404
REMARK  164  A    between atoms: _404  and  _405
REMARK  165  A    between atoms: _404  and  _407
REMARK  166  A    between atoms: _407  and  _408
REMARK  167  A    between atoms: _413  and  _414
REMARK  168  A    between atoms: _416  and  _418
REMARK  169  A    between atoms: _418  and  _419
REMARK  170  A    between atoms: _418  and  _421
REMARK  171  A    between atoms: _421  and  _422
REMARK  172  A    between atoms: _425  and  _427
REMARK  173  A    between atoms: _427  and  _428
REMARK  174  A    between atoms: _427  and  _430
REMARK  175  A    between atoms: _430  and  _431
REMARK  176  A    between atoms: _434  and  _436
REMARK  177  A    between atoms: _436  and  _437
REMARK  178  A    between atoms: _436  and  _439
REMARK  179  A    between atoms: _439  and  _440
REMARK  180  A    between atoms: _440  and  _441
REMARK  181  A    between atoms: _441  and  _442
REMARK  182  A    between atoms: _451  and  _453
REMARK  183  A    between atoms: _453  and  _454
REMARK  184  A    between atoms: _456  and  _458
REMARK  185  A    between atoms: _458  and  _459
REMARK  186  A    between atoms: _458  and  _461
REMARK  187  A    between atoms: _461  and  _462
REMARK  188  A    between atoms: _467  and  _469
REMARK  189  A    between atoms: _469  and  _470
REMARK  190  A    between atoms: _469  and  _472
REMARK  191  A    between atoms: _472  and  _473
REMARK  192  A    between atoms: _476  and  _478
REMARK  193  A    between atoms: _478  and  _479
REMARK  194  A    between atoms: _478  and  _481
REMARK  195  A    between atoms: _481  and  _482
REMARK  196  A    between atoms: _482  and  _483
REMARK  197  A    between atoms: _485  and  _487
REMARK  198  A    between atoms: _487  and  _488
REMARK  199  A    between atoms: _487  and  _490
REMARK  200  A    between atoms: _490  and  _491
REMARK  201  A    between atoms: _496  and  _497
REMARK  202  A    between atoms: _499  and  _501
REMARK  203  A    between atoms: _501  and  _502
REMARK  204  A    between atoms: _506  and  _507
REMARK  205  A    between atoms: _512  and  _514
REMARK  206  A    between atoms: _514  and  _515
REMARK  207  A    between atoms: _514  and  _517
REMARK  208  A    between atoms: _517  and  _518
REMARK  209  A    between atoms: _521  and  _523
REMARK  210  A    between atoms: _523  and  _524
REMARK  211  A    between atoms: _523  and  _526
REMARK  212  A    between atoms: _526  and  _527
REMARK  213  A    between atoms: _527  and  _528
REMARK  214  A    between atoms: _533  and  _535
REMARK  215  A    between atoms: _535  and  _536
REMARK  216  A    between atoms: _535  and  _538
REMARK  217  A    between atoms: _538  and  _539
REMARK  218  A    between atoms: _542  and  _544
REMARK  219  A    between atoms: _544  and  _545
REMARK  220  A    between atoms: _544  and  _547
REMARK  221  A    between atoms: _547  and  _548
REMARK  222  A    between atoms: _553  and  _554
REMARK  223  A    between atoms: _556  and  _558
REMARK  224  A    between atoms: _558  and  _559
REMARK  225  A    between atoms: _561  and  _563
REMARK  226  A    between atoms: _563  and  _564
REMARK  227  A    between atoms: _563  and  _566
REMARK  228  A    between atoms: _566  and  _567
REMARK  229  A    between atoms: _570  and  _572
REMARK  230  A    between atoms: _572  and  _573
REMARK  231  A    between atoms: _572  and  _575
REMARK  232  A    between atoms: _575  and  _576
REMARK  233  A    between atoms: _581  and  _583
REMARK  234  A    between atoms: _583  and  _584
REMARK  235  A    between atoms: _583  and  _586
REMARK  236  A    between atoms: _586  and  _587
REMARK  237  A    between atoms: _593  and  _595
REMARK  238  A    between atoms: _595  and  _596
REMARK  239  A    between atoms: _599  and  _601
REMARK  240  A    between atoms: _601  and  _602
REMARK  241  A    between atoms: _604  and  _606
REMARK  242  A    between atoms: _606  and  _607
REMARK  243  A    between atoms: _606  and  _609
REMARK  244  A    between atoms: _609  and  _610
REMARK  245  A    between atoms: _615  and  _616
REMARK                            x       y       z     vdW  Elec       q    Type
REMARK                         _______ _______ _______ _____ _____    ______ ____
ROOT
ATOM      1  CB  PHE A   1      -6.497  -7.465   9.707  0.00  0.00    +0.051 C 
ENDROOT
BRANCH   1   2
ATOM      2  CG  PHE A   1      -6.884  -7.132   8.281  0.00  0.00    -0.020 A 
ATOM      3  CD2 PHE A   1      -7.986  -6.326   8.010  0.00  0.00    -0.004 A 
ATOM      4  CE2 PHE A   1      -8.354  -6.024   6.698  0.00  0.00    -0.000 A 
ATOM      5  CZ  PHE A   1      -7.622  -6.535   5.639  0.00  0.00    -0.000 A 
ATOM      6  CE1 PHE A   1      -6.520  -7.352   5.893  0.00  0.00    -0.000 A 
ATOM      7  CD1 PHE A   1      -6.161  -7.649   7.215  0.00  0.00    -0.004 A 
ENDBRANCH   1   2
BRANCH   1   8
ATOM      8  CA  PHE A   1      -6.558  -6.266  10.671  0.00  0.00    +0.137 C 
BRANCH   8   9
ATOM      9  N   PHE A   1      -5.839  -5.112  10.116  0.00  0.00    -0.239 NA
ATOM     10  H   PHE A   1      -6.357  -4.215  10.023  0.00  0.00    +0.142 HD
ENDBRANCH   8   9
BRANCH   8  11
ATOM     11  C   PHE A   1      -6.181  -6.702  12.106  0.00  0.00    +0.224 C 
ATOM     12  O   PHE A   1      -6.623  -7.758  12.560  0.00  0.00    -0.287 OA
ENDBRANCH   8  11
ENDBRANCH   1   8
TORSDOF 4
REMARK  Name = ../refined-set-2016/3fql/3fql_pocket.pdb
REMARK  245 active torsions:
REMARK  status: ('A' for Active; 'I' for Inactive)
REMARK    1  A    between atoms: _1  and  _3
REMARK    2  A    between atoms: _3  and  _4
REMARK    3  A    between atoms: _3  and  _6
REMARK    4  A    between atoms: _6  and  _7
REMARK    5  A    between atoms: _9  and  _11
REMARK    6  A    between atoms: _11  and  _12
REMARK    7  A    between atoms: _11  and  _14
REMARK    8  A    between atoms: _14  and  _15
REMARK    9  A    between atoms: _20  and  _21
REMARK   10  A    between atoms: _23  and  _25
REMARK   11  A    between atoms: _25  and  _26
REMARK   12  A    between atoms: _28  and  _30
REMARK   13  A    between atoms: _30  and  _31
REMARK   14  A    between atoms: _30  and  _33
REMARK   15  A    between atoms: _33  and  _34
REMARK   16  A    between atoms: _40  and  _42
REMARK   17  A    between atoms: _42  and  _43
REMARK   18  A    between atoms: _42  and  _45
REMARK   19  A    between atoms: _45  and  _46
REMARK   20  A    between atoms: _46  and  _47
REMARK   21  A    between atoms: _52  and  _54
REMARK   22  A    between atoms: _54  and  _55
REMARK   23  A    between atoms: _54  and  _57
REMARK   24  A    between atoms: _57  and  _58
REMARK   25  A    between atoms: _63  and  _64
REMARK   26  A    between atoms: _66  and  _68
REMARK   27  A    between atoms: _68  and  _69
REMARK   28  A    between atoms: _68  and  _71
REMARK   29  A    between atoms: _71  and  _72
REMARK   30  A    between atoms: _75  and  _76
REMARK   31  A    between atoms: _81  and  _83
REMARK   32  A    between atoms: _83  and  _84
REMARK   33  A    between atoms: _86  and  _88
REMARK   34  A    between atoms: _88  and  _89
REMARK   35  A    between atoms: _88  and  _91
REMARK   36  A    between atoms: _91  and  _92
REMARK   37  A    between atoms: _92  and  _93
REMARK   38  A    between atoms: _98  and  _100
REMARK   39  A    between atoms: _100  and  _101
REMARK   40  A    between atoms: _100  and  _103
REMARK   41  A    between atoms: _103  and  _104
REMARK   42  A    between atoms: _104  and  _105
REMARK   43  A    between atoms: _105  and  _106
REMARK   44  A    between atoms: _115  and  _117
REMARK   45  A    between atoms: _117  and  _118
REMARK   46  A    between atoms: _117  and  _120
REMARK   47  A    between atoms: _123  and  _125
REMARK   48  A    between atoms: _125  and  _126
REMARK   49  A    between atoms: _125  and  _128
REMARK   50  A    between atoms: _128  and  _129
REMARK   51  A    between atoms: _135  and  _137
REMARK   52  A    between atoms: _137  and  _138
REMARK   53  A    between atoms: _137  and  _140
REMARK   54  A    between atoms: _140  and  _141
REMARK   55  A    between atoms: _144  and  _146
REMARK   56  A    between atoms: _146  and  _147
REMARK   57  A    between atoms: _146  and  _149
REMARK   58  A    between atoms: _149  and  _150
REMARK   59  A    between atoms: _160  and  _162
REMARK   60  A    between atoms: _162  and  _163
REMARK   61  A    between atoms: _165  and  _167
REMARK   62  A    between atoms: _167  and  _168
REMARK   63  A    between atoms: _167  and  _170
REMARK   64  A    between atoms: _170  and  _171
REMARK   65  A    between atoms: _177  and  _179
REMARK   66  A    between atoms: _179  and  _180
REMARK   67  A    between atoms: _183  and  _185
REMARK   68  A    between atoms: _185  and  _186
REMARK   69  A    between atoms: _185  and  _188
REMARK   70  A    between atoms: _188  and  _189
REMARK   71  A    between atoms: _194  and  _195
REMARK   72  A    between atoms: _197  and  _199
REMARK   73  A    between atoms: _199  and  _200
REMARK   74  A    between atoms: _199  and  _202
REMARK   75  A    between atoms: _202  and  _203
REMARK   76  A    between atoms: _203  and  _204
REMARK   77  A    between atoms: _206  and  _208
REMARK   78  A    between atoms: _208  and  _209
REMARK   79  A    between atoms: _208  and  _211
REMARK   80  A    between atoms: _211  and  _212
REMARK   81  A    between atoms: _215  and  _217
REMARK   82  A    between atoms: _217  and  _218
REMARK   83  A    between atoms: _217  and  _220
REMARK   84  A    between atoms: _223  and  _225
REMARK   85  A    between atoms: _225  and  _226
REMARK   86  A    between atoms: _225  and  _228
REMARK   87  A    between atoms: _230  and  _232
REMARK   88  A    between atoms: _232  and  _233
REMARK   89  A    between atoms: _235  and  _237
REMARK   90  A    between atoms: _237  and  _238
REMARK   91  A    between atoms: _237  and  _240
REMARK   92  A    between atoms: _240  and  _241
REMARK   93  A    between atoms: _244  and  _246
REMARK   94  A    between atoms: _246  and  _247
REMARK   95  A    between atoms: _246  and  _249
REMARK   96  A    between atoms: _249  and  _250
REMARK   97  A    between atoms: _253  and  _255
REMARK   98  A    between atoms: _255  and  _256
REMARK   99  A    between atoms: _255  and  _258
REMARK  100  A    between atoms: _258  and  _259
REMARK  101  A    between atoms: _262  and  _264
REMARK  102  A    between atoms: _264  and  _265
REMARK  103  A    between atoms: _264  and  _267
REMARK  104  A    between atoms: _270  and  _272
REMARK  105  A    between atoms: _272  and  _273
REMARK  106  A    between atoms: _272  and  _275
REMARK  107  A    between atoms: _278  and  _280
REMARK  108  A    between atoms: _280  and  _281
REMARK  109  A    between atoms: _280  and  _283
REMARK  110  A    between atoms: _283  and  _284
REMARK  111  A    between atoms: _287  and  _289
REMARK  112  A    between atoms: _289  and  _290
REMARK  113  A    between atoms: _289  and  _292
REMARK  114  A    between atoms: _292  and  _293
REMARK  115  A    between atoms: _293  and  _294
REMARK  116  A    between atoms: _297  and  _299
REMARK  117  A    between atoms: _299  and  _300
REMARK  118  A    between atoms: _299  and  _302
REMARK  119  A    between atoms: _302  and  _303
REMARK  120  A    between atoms: _306  and  _308
REMARK  121  A    between atoms: _308  and  _309
REMARK  122  A    between atoms: _308  and  _311
REMARK  123  A    between atoms: _311  and  _312
REMARK  124  A    between atoms: _315  and  _317
REMARK  125  A    between atoms: _317  and  _318
REMARK  126  A    between atoms: _317  and  _320
REMARK  127  A    between atoms: _320  and  _321
REMARK  128  A    between atoms: _321  and  _322
REMARK  129  A    between atoms: _325  and  _327
REMARK  130  A    between atoms: _327  and  _328
REMARK  131  A    between atoms: _327  and  _330
REMARK  132  A    between atoms: _330  and  _331
REMARK  133  A    between atoms: _334  and  _336
REMARK  134  A    between atoms: _336  and  _337
REMARK  135  A    between atoms: _336  and  _339
REMARK  136  A    between atoms: _339  and  _340
REMARK  137  A    between atoms: _343  and  _345
REMARK  138  A    between atoms: _345  and  _346
REMARK  139  A    between atoms: _345  and  _348
REMARK  140  A    between atoms: _348  and  _349
REMARK  141  A    between atoms: _352  and  _354
REMARK  142  A    between atoms: _354  and  _355
REMARK  143  A    between atoms: _354  and  _357
REMARK  144  A    between atoms: _357  and  _358
REMARK  145  A    between atoms: _360  and  _362
REMARK  146  A    between atoms: _362  and  _363
REMARK  147  A    between atoms: _362  and  _365
REMARK  148  A    between atoms: _367  and  _369
REMARK  149  A    between atoms: _369  and  _370
REMARK  150  A    between atoms: _369  and  _372
REMARK  151  A    between atoms: _372  and  _373
REMARK  152  A    between atoms: _375  and  _377
REMARK  153  A    between atoms: _377  and  _378
REMARK  154  A    between atoms: _377  and  _380
REMARK  155  A    between atoms: _380  and  _381
REMARK  156  A    between atoms: _383  and  _385
REMARK  157  A    between atoms: _385  and  _386
REMARK  158  A    between atoms: _385  and  _388
REMARK  159  A    between atoms: _388  and  _389
REMARK  160  A    between atoms: _394  and  _396
REMARK  161  A    between atoms: _396  and  _397
REMARK  162  A    between atoms: _396  and  _399
REMARK  163  A    between atoms: _402  and  _404
REMARK  164  A    between atoms: _404  and  _405
REMARK  165  A    between atoms: _404  and  _407
REMARK  166  A    between atoms: _407  and  _408
REMARK  167  A    between atoms: _413  and  _414
REMARK  168  A    between atoms: _416  and  _418
REMARK  169  A    between atoms: _418  and  _419
REMARK  170  A    between atoms: _418  and  _421
REMARK  171  A    between atoms: _421  and  _422
REMARK  172  A    between atoms: _425  and  _427
REMARK  173  A    between atoms: _427  and  _428
REMARK  174  A    between atoms: _427  and  _430
REMARK  175  A    between atoms: _430  and  _431
REMARK  176  A    between atoms: _434  and  _436
REMARK  177  A    between atoms: _436  and  _437
REMARK  178  A    between atoms: _436  and  _439
REMARK  179  A    between atoms: _439  and  _440
REMARK  180  A    between atoms: _440  and  _441
REMARK  181  A    between atoms: _441  and  _442
REMARK  182  A    between atoms: _451  and  _453
REMARK  183  A    between atoms: _453  and  _454
REMARK  184  A    between atoms: _456  and  _458
REMARK  185  A    between atoms: _458  and  _459
REMARK  186  A    between atoms: _458  and  _461
REMARK  187  A    between atoms: _461  and  _462
REMARK  188  A    between atoms: _467  and  _469
REMARK  189  A    between atoms: _469  and  _470
REMARK  190  A    between atoms: _469  and  _472
REMARK  191  A    between atoms: _472  and  _473
REMARK  192  A    between atoms: _476  and  _478
REMARK  193  A    between atoms: _478  and  _479
REMARK  194  A    between atoms: _478  and  _481
REMARK  195  A    between atoms: _481  and  _482
REMARK  196  A    between atoms: _482  and  _483
REMARK  197  A    between atoms: _485  and  _487
REMARK  198  A    between atoms: _487  and  _488
REMARK  199  A    between atoms: _487  and  _490
REMARK  200  A    between atoms: _490  and  _491
REMARK  201  A    between atoms: _496  and  _497
REMARK  202  A    between atoms: _499  and  _501
REMARK  203  A    between atoms: _501  and  _502
REMARK  204  A    between atoms: _506  and  _507
REMARK  205  A    between atoms: _512  and  _514
REMARK  206  A    between atoms: _514  and  _515
REMARK  207  A    between atoms: _514  and  _517
REMARK  208  A    between atoms: _517  and  _518
REMARK  209  A    between atoms: _521  and  _523
REMARK  210  A    between atoms: _523  and  _524
REMARK  211  A    between atoms: _523  and  _526
REMARK  212  A    between atoms: _526  and  _527
REMARK  213  A    between atoms: _527  and  _528
REMARK  214  A    between atoms: _533  and  _535
REMARK  215  A    between atoms: _535  and  _536
REMARK  216  A    between atoms: _535  and  _538
REMARK  217  A    between atoms: _538  and  _539
REMARK  218  A    between atoms: _542  and  _544
REMARK  219  A    between atoms: _544  and  _545
REMARK  220  A    between atoms: _544  and  _547
REMARK  221  A    between atoms: _547  and  _548
REMARK  222  A    between atoms: _553  and  _554
REMARK  223  A    between atoms: _556  and  _558
REMARK  224  A    between atoms: _558  and  _559
REMARK  225  A    between atoms: _561  and  _563
REMARK  226  A    between atoms: _563  and  _564
REMARK  227  A    between atoms: _563  and  _566
REMARK  228  A    between atoms: _566  and  _567
REMARK  229  A    between atoms: _570  and  _572
REMARK  230  A    between atoms: _572  and  _573
REMARK  231  A    between atoms: _572  and  _575
REMARK  232  A    between atoms: _575  and  _576
REMARK  233  A    between atoms: _581  and  _583
REMARK  234  A    between atoms: _583  and  _584
REMARK  235  A    between atoms: _583  and  _586
REMARK  236  A    between atoms: _586  and  _587
REMARK  237  A    between atoms: _593  and  _595
REMARK  238  A    between atoms: _595  and  _596
REMARK  239  A    between atoms: _599  and  _601
REMARK  240  A    between atoms: _601  and  _602
REMARK  241  A    between atoms: _604  and  _606
REMARK  242  A    between atoms: _606  and  _607
REMARK  243  A    between atoms: _606  and  _609
REMARK  244  A    between atoms: _609  and  _610
REMARK  245  A    between atoms: _615  and  _616
REMARK                            x       y       z     vdW  Elec       q    Type
REMARK                         _______ _______ _______ _____ _____    ______ ____
ROOT
ATOM      1  C   GLY A   2     -10.913  -3.875  19.396  0.00  0.00    +0.243 C 
ATOM      2  O   GLY A   2     -11.131  -2.982  20.217  0.00  0.00    -0.273 OA
ATOM      3  N   TYR A   3     -11.710  -4.934  19.266  0.00  0.00    -0.298 N 
ATOM      4  H   TYR A   3     -11.482  -5.666  18.564  0.00  0.00    +0.150 HD
ENDROOT
BRANCH   1   5
ATOM      5  CA  GLY A   2      -9.690  -3.784  18.495  0.00  0.00    +0.176 C 
BRANCH   5   8
ATOM      6  C   ALA A   1      -8.572  -5.646  17.375  0.00  0.00    +0.238 C 
ATOM      7  O   ALA A   1      -7.719  -5.715  18.260  0.00  0.00    -0.274 OA
ATOM      8  N   GLY A   2      -9.579  -4.775  17.416  0.00  0.00    -0.296 N 
ATOM      9  H   GLY A   2     -10.302  -4.797  16.669  0.00  0.00    +0.150 HD
BRANCH   6  10
ATOM     10  CA  ALA A   1      -8.533  -6.597  16.170  0.00  0.00    +0.145 C 
ATOM     11  CB  ALA A   1      -9.120  -7.950  16.534  0.00  0.00    +0.028 C 
BRANCH  10  12
ATOM     12  N   ALA A   1      -7.179  -6.754  15.642  0.00  0.00    -0.238 NA
ATOM     13  H   ALA A   1      -6.660  -7.638  15.819  0.00  0.00    +0.142 HD
ENDBRANCH  10  12
ENDBRANCH   6  10
ENDBRANCH   5   8
ENDBRANCH   1   5
BRANCH   3  14
ATOM     14  CA  TYR A   3     -12.906  -5.079  20.102  0.00  0.00    +0.141 C 
BRANCH  14  15
ATOM     15  C   TYR A   3     -12.472  -5.275  21.563  0.00  0.00    +0.227 C 
ATOM     16  O   TYR A   3     -11.493  -5.974  21.798  0.00  0.00    -0.286 OA
ENDBRANCH  14  15
BRANCH  14  17
ATOM     17  CB  TYR A   3     -13.760  -6.272  19.664  0.00  0.00    +0.054 C 
BRANCH  17  18
ATOM     18  CG  TYR A   3     -14.102  -6.319  18.192  0.00  0.00    -0.020 A 
ATOM     19  CD2 TYR A   3     -15.165  -5.573  17.670  0.00  0.00    -0.001 A 
ATOM     20  CE2 TYR A   3     -15.490  -5.638  16.304  0.00  0.00    +0.036 A 
ATOM     21  CZ  TYR A   3     -14.735  -6.455  15.462  0.00  0.00    +0.134 A 
ATOM     22  CE1 TYR A   3     -13.687  -7.196  15.968  0.00  0.00    +0.036 A 
ATOM     23  CD1 TYR A   3     -13.378  -7.133  17.323  0.00  0.00    -0.001 A 
BRANCH  21  24
ATOM     24  OH  TYR A   3     -15.022  -6.544  14.116  0.00  0.00    -0.506 OA
ATOM     25  HH  TYR A   3     -15.793  -5.960  13.905  0.00  0.00    +0.292 HD
ENDBRANCH  21  24
ENDBRANCH  17  18
ENDBRANCH  14  17
ENDBRANCH   3  14
TORSDOF 9
REMARK  Name = ../refined-set-2016/3fql/3fql_pocket.pdb
REMARK  245 active torsions:
REMARK  status: ('A' for Active; 'I' for Inactive)
REMARK    1  A    between atoms: _1  and  _3
REMARK    2  A    between atoms: _3  and  _4
REMARK    3  A    between atoms: _3  and  _6
REMARK    4  A    between atoms: _6  and  _7
REMARK    5  A    between atoms: _9  and  _11
REMARK    6  A    between atoms: _11  and  _12
REMARK    7  A    between atoms: _11  and  _14
REMARK    8  A    between atoms: _14  and  _15
REMARK    9  A    between atoms: _20  and  _21
REMARK   10  A    between atoms: _23  and  _25
REMARK   11  A    between atoms: _25  and  _26
REMARK   12  A    between atoms: _28  and  _30
REMARK   13  A    between atoms: _30  and  _31
REMARK   14  A    between atoms: _30  and  _33
REMARK   15  A    between atoms: _33  and  _34
REMARK   16  A    between atoms: _40  and  _42
REMARK   17  A    between atoms: _42  and  _43
REMARK   18  A    between atoms: _42  and  _45
REMARK   19  A    between atoms: _45  and  _46
REMARK   20  A    between atoms: _46  and  _47
REMARK   21  A    between atoms: _52  and  _54
REMARK   22  A    between atoms: _54  and  _55
REMARK   23  A    between atoms: _54  and  _57
REMARK   24  A    between atoms: _57  and  _58
REMARK   25  A    between atoms: _63  and  _64
REMARK   26  A    between atoms: _66  and  _68
REMARK   27  A    between atoms: _68  and  _69
REMARK   28  A    between atoms: _68  and  _71
REMARK   29  A    between atoms: _71  and  _72
REMARK   30  A    between atoms: _75  and  _76
REMARK   31  A    between atoms: _81  and  _83
REMARK   32  A    between atoms: _83  and  _84
REMARK   33  A    between atoms: _86  and  _88
REMARK   34  A    between atoms: _88  and  _89
REMARK   35  A    between atoms: _88  and  _91
REMARK   36  A    between atoms: _91  and  _92
REMARK   37  A    between atoms: _92  and  _93
REMARK   38  A    between atoms: _98  and  _100
REMARK   39  A    between atoms: _100  and  _101
REMARK   40  A    between atoms: _100  and  _103
REMARK   41  A    between atoms: _103  and  _104
REMARK   42  A    between atoms: _104  and  _105
REMARK   43  A    between atoms: _105  and  _106
REMARK   44  A    between atoms: _115  and  _117
REMARK   45  A    between atoms: _117  and  _118
REMARK   46  A    between atoms: _117  and  _120
REMARK   47  A    between atoms: _123  and  _125
REMARK   48  A    between atoms: _125  and  _126
REMARK   49  A    between atoms: _125  and  _128
REMARK   50  A    between atoms: _128  and  _129
REMARK   51  A    between atoms: _135  and  _137
REMARK   52  A    between atoms: _137  and  _138
REMARK   53  A    between atoms: _137  and  _140
REMARK   54  A    between atoms: _140  and  _141
REMARK   55  A    between atoms: _144  and  _146
REMARK   56  A    between atoms: _146  and  _147
REMARK   57  A    between atoms: _146  and  _149
REMARK   58  A    between atoms: _149  and  _150
REMARK   59  A    between atoms: _160  and  _162
REMARK   60  A    between atoms: _162  and  _163
REMARK   61  A    between atoms: _165  and  _167
REMARK   62  A    between atoms: _167  and  _168
REMARK   63  A    between atoms: _167  and  _170
REMARK   64  A    between atoms: _170  and  _171
REMARK   65  A    between atoms: _177  and  _179
REMARK   66  A    between atoms: _179  and  _180
REMARK   67  A    between atoms: _183  and  _185
REMARK   68  A    between atoms: _185  and  _186
REMARK   69  A    between atoms: _185  and  _188
REMARK   70  A    between atoms: _188  and  _189
REMARK   71  A    between atoms: _194  and  _195
REMARK   72  A    between atoms: _197  and  _199
REMARK   73  A    between atoms: _199  and  _200
REMARK   74  A    between atoms: _199  and  _202
REMARK   75  A    between atoms: _202  and  _203
REMARK   76  A    between atoms: _203  and  _204
REMARK   77  A    between atoms: _206  and  _208
REMARK   78  A    between atoms: _208  and  _209
REMARK   79  A    between atoms: _208  and  _211
REMARK   80  A    between atoms: _211  and  _212
REMARK   81  A    between atoms: _215  and  _217
REMARK   82  A    between atoms: _217  and  _218
REMARK   83  A    between atoms: _217  and  _220
REMARK   84  A    between atoms: _223  and  _225
REMARK   85  A    between atoms: _225  and  _226
REMARK   86  A    between atoms: _225  and  _228
REMARK   87  A    between atoms: _230  and  _232
REMARK   88  A    between atoms: _232  and  _233
REMARK   89  A    between atoms: _235  and  _237
REMARK   90  A    between atoms: _237  and  _238
REMARK   91  A    between atoms: _237  and  _240
REMARK   92  A    between atoms: _240  and  _241
REMARK   93  A    between atoms: _244  and  _246
REMARK   94  A    between atoms: _246  and  _247
REMARK   95  A    between atoms: _246  and  _249
REMARK   96  A    between atoms: _249  and  _250
REMARK   97  A    between atoms: _253  and  _255
REMARK   98  A    between atoms: _255  and  _256
REMARK   99  A    between atoms: _255  and  _258
REMARK  100  A    between atoms: _258  and  _259
REMARK  101  A    between atoms: _262  and  _264
REMARK  102  A    between atoms: _264  and  _265
REMARK  103  A    between atoms: _264  and  _267
REMARK  104  A    between atoms: _270  and  _272
REMARK  105  A    between atoms: _272  and  _273
REMARK  106  A    between atoms: _272  and  _275
REMARK  107  A    between atoms: _278  and  _280
REMARK  108  A    between atoms: _280  and  _281
REMARK  109  A    between atoms: _280  and  _283
REMARK  110  A    between atoms: _283  and  _284
REMARK  111  A    between atoms: _287  and  _289
REMARK  112  A    between atoms: _289  and  _290
REMARK  113  A    between atoms: _289  and  _292
REMARK  114  A    between atoms: _292  and  _293
REMARK  115  A    between atoms: _293  and  _294
REMARK  116  A    between atoms: _297  and  _299
REMARK  117  A    between atoms: _299  and  _300
REMARK  118  A    between atoms: _299  and  _302
REMARK  119  A    between atoms: _302  and  _303
REMARK  120  A    between atoms: _306  and  _308
REMARK  121  A    between atoms: _308  and  _309
REMARK  122  A    between atoms: _308  and  _311
REMARK  123  A    between atoms: _311  and  _312
REMARK  124  A    between atoms: _315  and  _317
REMARK  125  A    between atoms: _317  and  _318
REMARK  126  A    between atoms: _317  and  _320
REMARK  127  A    between atoms: _320  and  _321
REMARK  128  A    between atoms: _321  and  _322
REMARK  129  A    between atoms: _325  and  _327
REMARK  130  A    between atoms: _327  and  _328
REMARK  131  A    between atoms: _327  and  _330
REMARK  132  A    between atoms: _330  and  _331
REMARK  133  A    between atoms: _334  and  _336
REMARK  134  A    between atoms: _336  and  _337
REMARK  135  A    between atoms: _336  and  _339
REMARK  136  A    between atoms: _339  and  _340
REMARK  137  A    between atoms: _343  and  _345
REMARK  138  A    between atoms: _345  and  _346
REMARK  139  A    between atoms: _345  and  _348
REMARK  140  A    between atoms: _348  and  _349
REMARK  141  A    between atoms: _352  and  _354
REMARK  142  A    between atoms: _354  and  _355
REMARK  143  A    between atoms: _354  and  _357
REMARK  144  A    between atoms: _357  and  _358
REMARK  145  A    between atoms: _360  and  _362
REMARK  146  A    between atoms: _362  and  _363
REMARK  147  A    between atoms: _362  and  _365
REMARK  148  A    between atoms: _367  and  _369
REMARK  149  A    between atoms: _369  and  _370
REMARK  150  A    between atoms: _369  and  _372
REMARK  151  A    between atoms: _372  and  _373
REMARK  152  A    between atoms: _375  and  _377
REMARK  153  A    between atoms: _377  and  _378
REMARK  154  A    between atoms: _377  and  _380
REMARK  155  A    between atoms: _380  and  _381
REMARK  156  A    between atoms: _383  and  _385
REMARK  157  A    between atoms: _385  and  _386
REMARK  158  A    between atoms: _385  and  _388
REMARK  159  A    between atoms: _388  and  _389
REMARK  160  A    between atoms: _394  and  _396
REMARK  161  A    between atoms: _396  and  _397
REMARK  162  A    between atoms: _396  and  _399
REMARK  163  A    between atoms: _402  and  _404
REMARK  164  A    between atoms: _404  and  _405
REMARK  165  A    between atoms: _404  and  _407
REMARK  166  A    between atoms: _407  and  _408
REMARK  167  A    between atoms: _413  and  _414
REMARK  168  A    between atoms: _416  and  _418
REMARK  169  A    between atoms: _418  and  _419
REMARK  170  A    between atoms: _418  and  _421
REMARK  171  A    between atoms: _421  and  _422
REMARK  172  A    between atoms: _425  and  _427
REMARK  173  A    between atoms: _427  and  _428
REMARK  174  A    between atoms: _427  and  _430
REMARK  175  A    between atoms: _430  and  _431
REMARK  176  A    between atoms: _434  and  _436
REMARK  177  A    between atoms: _436  and  _437
REMARK  178  A    between atoms: _436  and  _439
REMARK  179  A    between atoms: _439  and  _440
REMARK  180  A    between atoms: _440  and  _441
REMARK  181  A    between atoms: _441  and  _442
REMARK  182  A    between atoms: _451  and  _453
REMARK  183  A    between atoms: _453  and  _454
REMARK  184  A    between atoms: _456  and  _458
REMARK  185  A    between atoms: _458  and  _459
REMARK  186  A    between atoms: _458  and  _461
REMARK  187  A    between atoms: _461  and  _462
REMARK  188  A    between atoms: _467  and  _469
REMARK  189  A    between atoms: _469  and  _470
REMARK  190  A    between atoms: _469  and  _472
REMARK  191  A    between atoms: _472  and  _473
REMARK  192  A    between atoms: _476  and  _478
REMARK  193  A    between atoms: _478  and  _479
REMARK  194  A    between atoms: _478  and  _481
REMARK  195  A    between atoms: _481  and  _482
REMARK  196  A    between atoms: _482  and  _483
REMARK  197  A    between atoms: _485  and  _487
REMARK  198  A    between atoms: _487  and  _488
REMARK  199  A    between atoms: _487  and  _490
REMARK  200  A    between atoms: _490  and  _491
REMARK  201  A    between atoms: _496  and  _497
REMARK  202  A    between atoms: _499  and  _501
REMARK  203  A    between atoms: _501  and  _502
REMARK  204  A    between atoms: _506  and  _507
REMARK  205  A    between atoms: _512  and  _514
REMARK  206  A    between atoms: _514  and  _515
REMARK  207  A    between atoms: _514  and  _517
REMARK  208  A    between atoms: _517  and  _518
REMARK  209  A    between atoms: _521  and  _523
REMARK  210  A    between atoms: _523  and  _524
REMARK  211  A    between atoms: _523  and  _526
REMARK  212  A    between atoms: _526  and  _527
REMARK  213  A    between atoms: _527  and  _528
REMARK  214  A    between atoms: _533  and  _535
REMARK  215  A    between atoms: _535  and  _536
REMARK  216  A    between atoms: _535  and  _538
REMARK  217  A    between atoms: _538  and  _539
REMARK  218  A    between atoms: _542  and  _544
REMARK  219  A    between atoms: _544  and  _545
REMARK  220  A    between atoms: _544  and  _547
REMARK  221  A    between atoms: _547  and  _548
REMARK  222  A    between atoms: _553  and  _554
REMARK  223  A    between atoms: _556  and  _558
REMARK  224  A    between atoms: _558  and  _559
REMARK  225  A    between atoms: _561  and  _563
REMARK  226  A    between atoms: _563  and  _564
REMARK  227  A    between atoms: _563  and  _566
REMARK  228  A    between atoms: _566  and  _567
REMARK  229  A    between atoms: _570  and  _572
REMARK  230  A    between atoms: _572  and  _573
REMARK  231  A    between atoms: _572  and  _575
REMARK  232  A    between atoms: _575  and  _576
REMARK  233  A    between atoms: _581  and  _583
REMARK  234  A    between atoms: _583  and  _584
REMARK  235  A    between atoms: _583  and  _586
REMARK  236  A    between atoms: _586  and  _587
REMARK  237  A    between atoms: _593  and  _595
REMARK  238  A    between atoms: _595  and  _596
REMARK  239  A    between atoms: _599  and  _601
REMARK  240  A    between atoms: _601  and  _602
REMARK  241  A    between atoms: _604  and  _606
REMARK  242  A    between atoms: _606  and  _607
REMARK  243  A    between atoms: _606  and  _609
REMARK  244  A    between atoms: _609  and  _610
REMARK  245  A    between atoms: _615  and  _616
REMARK                            x       y       z     vdW  Elec       q    Type
REMARK                         _______ _______ _______ _____ _____    ______ ____
ROOT
ATOM      1  O   HOH     1     -22.567 -18.136   5.843  0.00  0.00    +0.000 OA
ENDROOT
TORSDOF 0
REMARK  Name = ../refined-set-2016/3fql/3fql_pocket.pdb
REMARK  245 active torsions:
REMARK  status: ('A' for Active; 'I' for Inactive)
REMARK    1  A    between atoms: _1  and  _3
REMARK    2  A    between atoms: _3  and  _4
REMARK    3  A    between atoms: _3  and  _6
REMARK    4  A    between atoms: _6  and  _7
REMARK    5  A    between atoms: _9  and  _11
REMARK    6  A    between atoms: _11  and  _12
REMARK    7  A    between atoms: _11  and  _14
REMARK    8  A    between atoms: _14  and  _15
REMARK    9  A    between atoms: _20  and  _21
REMARK   10  A    between atoms: _23  and  _25
REMARK   11  A    between atoms: _25  and  _26
REMARK   12  A    between atoms: _28  and  _30
REMARK   13  A    between atoms: _30  and  _31
REMARK   14  A    between atoms: _30  and  _33
REMARK   15  A    between atoms: _33  and  _34
REMARK   16  A    between atoms: _40  and  _42
REMARK   17  A    between atoms: _42  and  _43
REMARK   18  A    between atoms: _42  and  _45
REMARK   19  A    between atoms: _45  and  _46
REMARK   20  A    between atoms: _46  and  _47
REMARK   21  A    between atoms: _52  and  _54
REMARK   22  A    between atoms: _54  and  _55
REMARK   23  A    between atoms: _54  and  _57
REMARK   24  A    between atoms: _57  and  _58
REMARK   25  A    between atoms: _63  and  _64
REMARK   26  A    between atoms: _66  and  _68
REMARK   27  A    between atoms: _68  and  _69
REMARK   28  A    between atoms: _68  and  _71
REMARK   29  A    between atoms: _71  and  _72
REMARK   30  A    between atoms: _75  and  _76
REMARK   31  A    between atoms: _81  and  _83
REMARK   32  A    between atoms: _83  and  _84
REMARK   33  A    between atoms: _86  and  _88
REMARK   34  A    between atoms: _88  and  _89
REMARK   35  A    between atoms: _88  and  _91
REMARK   36  A    between atoms: _91  and  _92
REMARK   37  A    between atoms: _92  and  _93
REMARK   38  A    between atoms: _98  and  _100
REMARK   39  A    between atoms: _100  and  _101
REMARK   40  A    between atoms: _100  and  _103
REMARK   41  A    between atoms: _103  and  _104
REMARK   42  A    between atoms: _104  and  _105
REMARK   43  A    between atoms: _105  and  _106
REMARK   44  A    between atoms: _115  and  _117
REMARK   45  A    between atoms: _117  and  _118
REMARK   46  A    between atoms: _117  and  _120
REMARK   47  A    between atoms: _123  and  _125
REMARK   48  A    between atoms: _125  and  _126
REMARK   49  A    between atoms: _125  and  _128
REMARK   50  A    between atoms: _128  and  _129
REMARK   51  A    between atoms: _135  and  _137
REMARK   52  A    between atoms: _137  and  _138
REMARK   53  A    between atoms: _137  and  _140
REMARK   54  A    between atoms: _140  and  _141
REMARK   55  A    between atoms: _144  and  _146
REMARK   56  A    between atoms: _146  and  _147
REMARK   57  A    between atoms: _146  and  _149
REMARK   58  A    between atoms: _149  and  _150
REMARK   59  A    between atoms: _160  and  _162
REMARK   60  A    between atoms: _162  and  _163
REMARK   61  A    between atoms: _165  and  _167
REMARK   62  A    between atoms: _167  and  _168
REMARK   63  A    between atoms: _167  and  _170
REMARK   64  A    between atoms: _170  and  _171
REMARK   65  A    between atoms: _177  and  _179
REMARK   66  A    between atoms: _179  and  _180
REMARK   67  A    between atoms: _183  and  _185
REMARK   68  A    between atoms: _185  and  _186
REMARK   69  A    between atoms: _185  and  _188
REMARK   70  A    between atoms: _188  and  _189
REMARK   71  A    between atoms: _194  and  _195
REMARK   72  A    between atoms: _197  and  _199
REMARK   73  A    between atoms: _199  and  _200
REMARK   74  A    between atoms: _199  and  _202
REMARK   75  A    between atoms: _202  and  _203
REMARK   76  A    between atoms: _203  and  _204
REMARK   77  A    between atoms: _206  and  _208
REMARK   78  A    between atoms: _208  and  _209
REMARK   79  A    between atoms: _208  and  _211
REMARK   80  A    between atoms: _211  and  _212
REMARK   81  A    between atoms: _215  and  _217
REMARK   82  A    between atoms: _217  and  _218
REMARK   83  A    between atoms: _217  and  _220
REMARK   84  A    between atoms: _223  and  _225
REMARK   85  A    between atoms: _225  and  _226
REMARK   86  A    between atoms: _225  and  _228
REMARK   87  A    between atoms: _230  and  _232
REMARK   88  A    between atoms: _232  and  _233
REMARK   89  A    between atoms: _235  and  _237
REMARK   90  A    between atoms: _237  and  _238
REMARK   91  A    between atoms: _237  and  _240
REMARK   92  A    between atoms: _240  and  _241
REMARK   93  A    between atoms: _244  and  _246
REMARK   94  A    between atoms: _246  and  _247
REMARK   95  A    between atoms: _246  and  _249
REMARK   96  A    between atoms: _249  and  _250
REMARK   97  A    between atoms: _253  and  _255
REMARK   98  A    between atoms: _255  and  _256
REMARK   99  A    between atoms: _255  and  _258
REMARK  100  A    between atoms: _258  and  _259
REMARK  101  A    between atoms: _262  and  _264
REMARK  102  A    between atoms: _264  and  _265
REMARK  103  A    between atoms: _264  and  _267
REMARK  104  A    between atoms: _270  and  _272
REMARK  105  A    between atoms: _272  and  _273
REMARK  106  A    between atoms: _272  and  _275
REMARK  107  A    between atoms: _278  and  _280
REMARK  108  A    between atoms: _280  and  _281
REMARK  109  A    between atoms: _280  and  _283
REMARK  110  A    between atoms: _283  and  _284
REMARK  111  A    between atoms: _287  and  _289
REMARK  112  A    between atoms: _289  and  _290
REMARK  113  A    between atoms: _289  and  _292
REMARK  114  A    between atoms: _292  and  _293
REMARK  115  A    between atoms: _293  and  _294
REMARK  116  A    between atoms: _297  and  _299
REMARK  117  A    between atoms: _299  and  _300
REMARK  118  A    between atoms: _299  and  _302
REMARK  119  A    between atoms: _302  and  _303
REMARK  120  A    between atoms: _306  and  _308
REMARK  121  A    between atoms: _308  and  _309
REMARK  122  A    between atoms: _308  and  _311
REMARK  123  A    between atoms: _311  and  _312
REMARK  124  A    between atoms: _315  and  _317
REMARK  125  A    between atoms: _317  and  _318
REMARK  126  A    between atoms: _317  and  _320
REMARK  127  A    between atoms: _320  and  _321
REMARK  128  A    between atoms: _321  and  _322
REMARK  129  A    between atoms: _325  and  _327
REMARK  130  A    between atoms: _327  and  _328
REMARK  131  A    between atoms: _327  and  _330
REMARK  132  A    between atoms: _330  and  _331
REMARK  133  A    between atoms: _334  and  _336
REMARK  134  A    between atoms: _336  and  _337
REMARK  135  A    between atoms: _336  and  _339
REMARK  136  A    between atoms: _339  and  _340
REMARK  137  A    between atoms: _343  and  _345
REMARK  138  A    between atoms: _345  and  _346
REMARK  139  A    between atoms: _345  and  _348
REMARK  140  A    between atoms: _348  and  _349
REMARK  141  A    between atoms: _352  and  _354
REMARK  142  A    between atoms: _354  and  _355
REMARK  143  A    between atoms: _354  and  _357
REMARK  144  A    between atoms: _357  and  _358
REMARK  145  A    between atoms: _360  and  _362
REMARK  146  A    between atoms: _362  and  _363
REMARK  147  A    between atoms: _362  and  _365
REMARK  148  A    between atoms: _367  and  _369
REMARK  149  A    between atoms: _369  and  _370
REMARK  150  A    between atoms: _369  and  _372
REMARK  151  A    between atoms: _372  and  _373
REMARK  152  A    between atoms: _375  and  _377
REMARK  153  A    between atoms: _377  and  _378
REMARK  154  A    between atoms: _377  and  _380
REMARK  155  A    between atoms: _380  and  _381
REMARK  156  A    between atoms: _383  and  _385
REMARK  157  A    between atoms: _385  and  _386
REMARK  158  A    between atoms: _385  and  _388
REMARK  159  A    between atoms: _388  and  _389
REMARK  160  A    between atoms: _394  and  _396
REMARK  161  A    between atoms: _396  and  _397
REMARK  162  A    between atoms: _396  and  _399
REMARK  163  A    between atoms: _402  and  _404
REMARK  164  A    between atoms: _404  and  _405
REMARK  165  A    between atoms: _404  and  _407
REMARK  166  A    between atoms: _407  and  _408
REMARK  167  A    between atoms: _413  and  _414
REMARK  168  A    between atoms: _416  and  _418
REMARK  169  A    between atoms: _418  and  _419
REMARK  170  A    between atoms: _418  and  _421
REMARK  171  A    between atoms: _421  and  _422
REMARK  172  A    between atoms: _425  and  _427
REMARK  173  A    between atoms: _427  and  _428
REMARK  174  A    between atoms: _427  and  _430
REMARK  175  A    between atoms: _430  and  _431
REMARK  176  A    between atoms: _434  and  _436
REMARK  177  A    between atoms: _436  and  _437
REMARK  178  A    between atoms: _436  and  _439
REMARK  179  A    between atoms: _439  and  _440
REMARK  180  A    between atoms: _440  and  _441
REMARK  181  A    between atoms: _441  and  _442
REMARK  182  A    between atoms: _451  and  _453
REMARK  183  A    between atoms: _453  and  _454
REMARK  184  A    between atoms: _456  and  _458
REMARK  185  A    between atoms: _458  and  _459
REMARK  186  A    between atoms: _458  and  _461
REMARK  187  A    between atoms: _461  and  _462
REMARK  188  A    between atoms: _467  and  _469
REMARK  189  A    between atoms: _469  and  _470
REMARK  190  A    between atoms: _469  and  _472
REMARK  191  A    between atoms: _472  and  _473
REMARK  192  A    between atoms: _476  and  _478
REMARK  193  A    between atoms: _478  and  _479
REMARK  194  A    between atoms: _478  and  _481
REMARK  195  A    between atoms: _481  and  _482
REMARK  196  A    between atoms: _482  and  _483
REMARK  197  A    between atoms: _485  and  _487
REMARK  198  A    between atoms: _487  and  _488
REMARK  199  A    between atoms: _487  and  _490
REMARK  200  A    between atoms: _490  and  _491
REMARK  201  A    between atoms: _496  and  _497
REMARK  202  A    between atoms: _499  and  _501
REMARK  203  A    between atoms: _501  and  _502
REMARK  204  A    between atoms: _506  and  _507
REMARK  205  A    between atoms: _512  and  _514
REMARK  206  A    between atoms: _514  and  _515
REMARK  207  A    between atoms: _514  and  _517
REMARK  208  A    between atoms: _517  and  _518
REMARK  209  A    between atoms: _521  and  _523
REMARK  210  A    between atoms: _523  and  _524
REMARK  211  A    between atoms: _523  and  _526
REMARK  212  A    between atoms: _526  and  _527
REMARK  213  A    between atoms: _527  and  _528
REMARK  214  A    between atoms: _533  and  _535
REMARK  215  A    between atoms: _535  and  _536
REMARK  216  A    between atoms: _535  and  _538
REMARK  217  A    between atoms: _538  and  _539
REMARK  218  A    between atoms: _542  and  _544
REMARK  219  A    between atoms: _544  and  _545
REMARK  220  A    between atoms: _544  and  _547
REMARK  221  A    between atoms: _547  and  _548
REMARK  222  A    between atoms: _553  and  _554
REMARK  223  A    between atoms: _556  and  _558
REMARK  224  A    between atoms: _558  and  _559
REMARK  225  A    between atoms: _561  and  _563
REMARK  226  A    between atoms: _563  and  _564
REMARK  227  A    between atoms: _563  and  _566
REMARK  228  A    between atoms: _566  and  _567
REMARK  229  A    between atoms: _570  and  _572
REMARK  230  A    between atoms: _572  and  _573
REMARK  231  A    between atoms: _572  and  _575
REMARK  232  A    between atoms: _575  and  _576
REMARK  233  A    between atoms: _581  and  _583
REMARK  234  A    between atoms: _583  and  _584
REMARK  235  A    between atoms: _583  and  _586
REMARK  236  A    between atoms: _586  and  _587
REMARK  237  A    between atoms: _593  and  _595
REMARK  238  A    between atoms: _595  and  _596
REMARK  239  A    between atoms: _599  and  _601
REMARK  240  A    between atoms: _601  and  _602
REMARK  241  A    between atoms: _604  and  _606
REMARK  242  A    between atoms: _606  and  _607
REMARK  243  A    between atoms: _606  and  _609
REMARK  244  A    between atoms: _609  and  _610
REMARK  245  A    between atoms: _615  and  _616
REMARK                            x       y       z     vdW  Elec       q    Type
REMARK                         _______ _______ _______ _____ _____    ______ ____
ROOT
ATOM      1  O   HOH     1     -16.730 -10.681   1.523  0.00  0.00    +0.000 OA
ENDROOT
TORSDOF 0
REMARK  Name = ../refined-set-2016/3fql/3fql_pocket.pdb
REMARK  245 active torsions:
REMARK  status: ('A' for Active; 'I' for Inactive)
REMARK    1  A    between atoms: _1  and  _3
REMARK    2  A    between atoms: _3  and  _4
REMARK    3  A    between atoms: _3  and  _6
REMARK    4  A    between atoms: _6  and  _7
REMARK    5  A    between atoms: _9  and  _11
REMARK    6  A    between atoms: _11  and  _12
REMARK    7  A    between atoms: _11  and  _14
REMARK    8  A    between atoms: _14  and  _15
REMARK    9  A    between atoms: _20  and  _21
REMARK   10  A    between atoms: _23  and  _25
REMARK   11  A    between atoms: _25  and  _26
REMARK   12  A    between atoms: _28  and  _30
REMARK   13  A    between atoms: _30  and  _31
REMARK   14  A    between atoms: _30  and  _33
REMARK   15  A    between atoms: _33  and  _34
REMARK   16  A    between atoms: _40  and  _42
REMARK   17  A    between atoms: _42  and  _43
REMARK   18  A    between atoms: _42  and  _45
REMARK   19  A    between atoms: _45  and  _46
REMARK   20  A    between atoms: _46  and  _47
REMARK   21  A    between atoms: _52  and  _54
REMARK   22  A    between atoms: _54  and  _55
REMARK   23  A    between atoms: _54  and  _57
REMARK   24  A    between atoms: _57  and  _58
REMARK   25  A    between atoms: _63  and  _64
REMARK   26  A    between atoms: _66  and  _68
REMARK   27  A    between atoms: _68  and  _69
REMARK   28  A    between atoms: _68  and  _71
REMARK   29  A    between atoms: _71  and  _72
REMARK   30  A    between atoms: _75  and  _76
REMARK   31  A    between atoms: _81  and  _83
REMARK   32  A    between atoms: _83  and  _84
REMARK   33  A    between atoms: _86  and  _88
REMARK   34  A    between atoms: _88  and  _89
REMARK   35  A    between atoms: _88  and  _91
REMARK   36  A    between atoms: _91  and  _92
REMARK   37  A    between atoms: _92  and  _93
REMARK   38  A    between atoms: _98  and  _100
REMARK   39  A    between atoms: _100  and  _101
REMARK   40  A    between atoms: _100  and  _103
REMARK   41  A    between atoms: _103  and  _104
REMARK   42  A    between atoms: _104  and  _105
REMARK   43  A    between atoms: _105  and  _106
REMARK   44  A    between atoms: _115  and  _117
REMARK   45  A    between atoms: _117  and  _118
REMARK   46  A    between atoms: _117  and  _120
REMARK   47  A    between atoms: _123  and  _125
REMARK   48  A    between atoms: _125  and  _126
REMARK   49  A    between atoms: _125  and  _128
REMARK   50  A    between atoms: _128  and  _129
REMARK   51  A    between atoms: _135  and  _137
REMARK   52  A    between atoms: _137  and  _138
REMARK   53  A    between atoms: _137  and  _140
REMARK   54  A    between atoms: _140  and  _141
REMARK   55  A    between atoms: _144  and  _146
REMARK   56  A    between atoms: _146  and  _147
REMARK   57  A    between atoms: _146  and  _149
REMARK   58  A    between atoms: _149  and  _150
REMARK   59  A    between atoms: _160  and  _162
REMARK   60  A    between atoms: _162  and  _163
REMARK   61  A    between atoms: _165  and  _167
REMARK   62  A    between atoms: _167  and  _168
REMARK   63  A    between atoms: _167  and  _170
REMARK   64  A    between atoms: _170  and  _171
REMARK   65  A    between atoms: _177  and  _179
REMARK   66  A    between atoms: _179  and  _180
REMARK   67  A    between atoms: _183  and  _185
REMARK   68  A    between atoms: _185  and  _186
REMARK   69  A    between atoms: _185  and  _188
REMARK   70  A    between atoms: _188  and  _189
REMARK   71  A    between atoms: _194  and  _195
REMARK   72  A    between atoms: _197  and  _199
REMARK   73  A    between atoms: _199  and  _200
REMARK   74  A    between atoms: _199  and  _202
REMARK   75  A    between atoms: _202  and  _203
REMARK   76  A    between atoms: _203  and  _204
REMARK   77  A    between atoms: _206  and  _208
REMARK   78  A    between atoms: _208  and  _209
REMARK   79  A    between atoms: _208  and  _211
REMARK   80  A    between atoms: _211  and  _212
REMARK   81  A    between atoms: _215  and  _217
REMARK   82  A    between atoms: _217  and  _218
REMARK   83  A    between atoms: _217  and  _220
REMARK   84  A    between atoms: _223  and  _225
REMARK   85  A    between atoms: _225  and  _226
REMARK   86  A    between atoms: _225  and  _228
REMARK   87  A    between atoms: _230  and  _232
REMARK   88  A    between atoms: _232  and  _233
REMARK   89  A    between atoms: _235  and  _237
REMARK   90  A    between atoms: _237  and  _238
REMARK   91  A    between atoms: _237  and  _240
REMARK   92  A    between atoms: _240  and  _241
REMARK   93  A    between atoms: _244  and  _246
REMARK   94  A    between atoms: _246  and  _247
REMARK   95  A    between atoms: _246  and  _249
REMARK   96  A    between atoms: _249  and  _250
REMARK   97  A    between atoms: _253  and  _255
REMARK   98  A    between atoms: _255  and  _256
REMARK   99  A    between atoms: _255  and  _258
REMARK  100  A    between atoms: _258  and  _259
REMARK  101  A    between atoms: _262  and  _264
REMARK  102  A    between atoms: _264  and  _265
REMARK  103  A    between atoms: _264  and  _267
REMARK  104  A    between atoms: _270  and  _272
REMARK  105  A    between atoms: _272  and  _273
REMARK  106  A    between atoms: _272  and  _275
REMARK  107  A    between atoms: _278  and  _280
REMARK  108  A    between atoms: _280  and  _281
REMARK  109  A    between atoms: _280  and  _283
REMARK  110  A    between atoms: _283  and  _284
REMARK  111  A    between atoms: _287  and  _289
REMARK  112  A    between atoms: _289  and  _290
REMARK  113  A    between atoms: _289  and  _292
REMARK  114  A    between atoms: _292  and  _293
REMARK  115  A    between atoms: _293  and  _294
REMARK  116  A    between atoms: _297  and  _299
REMARK  117  A    between atoms: _299  and  _300
REMARK  118  A    between atoms: _299  and  _302
REMARK  119  A    between atoms: _302  and  _303
REMARK  120  A    between atoms: _306  and  _308
REMARK  121  A    between atoms: _308  and  _309
REMARK  122  A    between atoms: _308  and  _311
REMARK  123  A    between atoms: _311  and  _312
REMARK  124  A    between atoms: _315  and  _317
REMARK  125  A    between atoms: _317  and  _318
REMARK  126  A    between atoms: _317  and  _320
REMARK  127  A    between atoms: _320  and  _321
REMARK  128  A    between atoms: _321  and  _322
REMARK  129  A    between atoms: _325  and  _327
REMARK  130  A    between atoms: _327  and  _328
REMARK  131  A    between atoms: _327  and  _330
REMARK  132  A    between atoms: _330  and  _331
REMARK  133  A    between atoms: _334  and  _336
REMARK  134  A    between atoms: _336  and  _337
REMARK  135  A    between atoms: _336  and  _339
REMARK  136  A    between atoms: _339  and  _340
REMARK  137  A    between atoms: _343  and  _345
REMARK  138  A    between atoms: _345  and  _346
REMARK  139  A    between atoms: _345  and  _348
REMARK  140  A    between atoms: _348  and  _349
REMARK  141  A    between atoms: _352  and  _354
REMARK  142  A    between atoms: _354  and  _355
REMARK  143  A    between atoms: _354  and  _357
REMARK  144  A    between atoms: _357  and  _358
REMARK  145  A    between atoms: _360  and  _362
REMARK  146  A    between atoms: _362  and  _363
REMARK  147  A    between atoms: _362  and  _365
REMARK  148  A    between atoms: _367  and  _369
REMARK  149  A    between atoms: _369  and  _370
REMARK  150  A    between atoms: _369  and  _372
REMARK  151  A    between atoms: _372  and  _373
REMARK  152  A    between atoms: _375  and  _377
REMARK  153  A    between atoms: _377  and  _378
REMARK  154  A    between atoms: _377  and  _380
REMARK  155  A    between atoms: _380  and  _381
REMARK  156  A    between atoms: _383  and  _385
REMARK  157  A    between atoms: _385  and  _386
REMARK  158  A    between atoms: _385  and  _388
REMARK  159  A    between atoms: _388  and  _389
REMARK  160  A    between atoms: _394  and  _396
REMARK  161  A    between atoms: _396  and  _397
REMARK  162  A    between atoms: _396  and  _399
REMARK  163  A    between atoms: _402  and  _404
REMARK  164  A    between atoms: _404  and  _405
REMARK  165  A    between atoms: _404  and  _407
REMARK  166  A    between atoms: _407  and  _408
REMARK  167  A    between atoms: _413  and  _414
REMARK  168  A    between atoms: _416  and  _418
REMARK  169  A    between atoms: _418  and  _419
REMARK  170  A    between atoms: _418  and  _421
REMARK  171  A    between atoms: _421  and  _422
REMARK  172  A    between atoms: _425  and  _427
REMARK  173  A    between atoms: _427  and  _428
REMARK  174  A    between atoms: _427  and  _430
REMARK  175  A    between atoms: _430  and  _431
REMARK  176  A    between atoms: _434  and  _436
REMARK  177  A    between atoms: _436  and  _437
REMARK  178  A    between atoms: _436  and  _439
REMARK  179  A    between atoms: _439  and  _440
REMARK  180  A    between atoms: _440  and  _441
REMARK  181  A    between atoms: _441  and  _442
REMARK  182  A    between atoms: _451  and  _453
REMARK  183  A    between atoms: _453  and  _454
REMARK  184  A    between atoms: _456  and  _458
REMARK  185  A    between atoms: _458  and  _459
REMARK  186  A    between atoms: _458  and  _461
REMARK  187  A    between atoms: _461  and  _462
REMARK  188  A    between atoms: _467  and  _469
REMARK  189  A    between atoms: _469  and  _470
REMARK  190  A    between atoms: _469  and  _472
REMARK  191  A    between atoms: _472  and  _473
REMARK  192  A    between atoms: _476  and  _478
REMARK  193  A    between atoms: _478  and  _479
REMARK  194  A    between atoms: _478  and  _481
REMARK  195  A    between atoms: _481  and  _482
REMARK  196  A    between atoms: _482  and  _483
REMARK  197  A    between atoms: _485  and  _487
REMARK  198  A    between atoms: _487  and  _488
REMARK  199  A    between atoms: _487  and  _490
REMARK  200  A    between atoms: _490  and  _491
REMARK  201  A    between atoms: _496  and  _497
REMARK  202  A    between atoms: _499  and  _501
REMARK  203  A    between atoms: _501  and  _502
REMARK  204  A    between atoms: _506  and  _507
REMARK  205  A    between atoms: _512  and  _514
REMARK  206  A    between atoms: _514  and  _515
REMARK  207  A    between atoms: _514  and  _517
REMARK  208  A    between atoms: _517  and  _518
REMARK  209  A    between atoms: _521  and  _523
REMARK  210  A    between atoms: _523  and  _524
REMARK  211  A    between atoms: _523  and  _526
REMARK  212  A    between atoms: _526  and  _527
REMARK  213  A    between atoms: _527  and  _528
REMARK  214  A    between atoms: _533  and  _535
REMARK  215  A    between atoms: _535  and  _536
REMARK  216  A    between atoms: _535  and  _538
REMARK  217  A    between atoms: _538  and  _539
REMARK  218  A    between atoms: _542  and  _544
REMARK  219  A    between atoms: _544  and  _545
REMARK  220  A    between atoms: _544  and  _547
REMARK  221  A    between atoms: _547  and  _548
REMARK  222  A    between atoms: _553  and  _554
REMARK  223  A    between atoms: _556  and  _558
REMARK  224  A    between atoms: _558  and  _559
REMARK  225  A    between atoms: _561  and  _563
REMARK  226  A    between atoms: _563  and  _564
REMARK  227  A    between atoms: _563  and  _566
REMARK  228  A    between atoms: _566  and  _567
REMARK  229  A    between atoms: _570  and  _572
REMARK  230  A    between atoms: _572  and  _573
REMARK  231  A    between atoms: _572  and  _575
REMARK  232  A    between atoms: _575  and  _576
REMARK  233  A    between atoms: _581  and  _583
REMARK  234  A    between atoms: _583  and  _584
REMARK  235  A    between atoms: _583  and  _586
REMARK  236  A    between atoms: _586  and  _587
REMARK  237  A    between atoms: _593  and  _595
REMARK  238  A    between atoms: _595  and  _596
REMARK  239  A    between atoms: _599  and  _601
REMARK  240  A    between atoms: _601  and  _602
REMARK  241  A    between atoms: _604  and  _606
REMARK  242  A    between atoms: _606  and  _607
REMARK  243  A    between atoms: _606  and  _609
REMARK  244  A    between atoms: _609  and  _610
REMARK  245  A    between atoms: _615  and  _616
REMARK                            x       y       z     vdW  Elec       q    Type
REMARK                         _______ _______ _______ _____ _____    ______ ____
ROOT
ATOM      1  O   HOH     1     -18.081  -8.405   1.987  0.00  0.00    +0.000 OA
ENDROOT
TORSDOF 0
REMARK  Name = ../refined-set-2016/3fql/3fql_pocket.pdb
REMARK  245 active torsions:
REMARK  status: ('A' for Active; 'I' for Inactive)
REMARK    1  A    between atoms: _1  and  _3
REMARK    2  A    between atoms: _3  and  _4
REMARK    3  A    between atoms: _3  and  _6
REMARK    4  A    between atoms: _6  and  _7
REMARK    5  A    between atoms: _9  and  _11
REMARK    6  A    between atoms: _11  and  _12
REMARK    7  A    between atoms: _11  and  _14
REMARK    8  A    between atoms: _14  and  _15
REMARK    9  A    between atoms: _20  and  _21
REMARK   10  A    between atoms: _23  and  _25
REMARK   11  A    between atoms: _25  and  _26
REMARK   12  A    between atoms: _28  and  _30
REMARK   13  A    between atoms: _30  and  _31
REMARK   14  A    between atoms: _30  and  _33
REMARK   15  A    between atoms: _33  and  _34
REMARK   16  A    between atoms: _40  and  _42
REMARK   17  A    between atoms: _42  and  _43
REMARK   18  A    between atoms: _42  and  _45
REMARK   19  A    between atoms: _45  and  _46
REMARK   20  A    between atoms: _46  and  _47
REMARK   21  A    between atoms: _52  and  _54
REMARK   22  A    between atoms: _54  and  _55
REMARK   23  A    between atoms: _54  and  _57
REMARK   24  A    between atoms: _57  and  _58
REMARK   25  A    between atoms: _63  and  _64
REMARK   26  A    between atoms: _66  and  _68
REMARK   27  A    between atoms: _68  and  _69
REMARK   28  A    between atoms: _68  and  _71
REMARK   29  A    between atoms: _71  and  _72
REMARK   30  A    between atoms: _75  and  _76
REMARK   31  A    between atoms: _81  and  _83
REMARK   32  A    between atoms: _83  and  _84
REMARK   33  A    between atoms: _86  and  _88
REMARK   34  A    between atoms: _88  and  _89
REMARK   35  A    between atoms: _88  and  _91
REMARK   36  A    between atoms: _91  and  _92
REMARK   37  A    between atoms: _92  and  _93
REMARK   38  A    between atoms: _98  and  _100
REMARK   39  A    between atoms: _100  and  _101
REMARK   40  A    between atoms: _100  and  _103
REMARK   41  A    between atoms: _103  and  _104
REMARK   42  A    between atoms: _104  and  _105
REMARK   43  A    between atoms: _105  and  _106
REMARK   44  A    between atoms: _115  and  _117
REMARK   45  A    between atoms: _117  and  _118
REMARK   46  A    between atoms: _117  and  _120
REMARK   47  A    between atoms: _123  and  _125
REMARK   48  A    between atoms: _125  and  _126
REMARK   49  A    between atoms: _125  and  _128
REMARK   50  A    between atoms: _128  and  _129
REMARK   51  A    between atoms: _135  and  _137
REMARK   52  A    between atoms: _137  and  _138
REMARK   53  A    between atoms: _137  and  _140
REMARK   54  A    between atoms: _140  and  _141
REMARK   55  A    between atoms: _144  and  _146
REMARK   56  A    between atoms: _146  and  _147
REMARK   57  A    between atoms: _146  and  _149
REMARK   58  A    between atoms: _149  and  _150
REMARK   59  A    between atoms: _160  and  _162
REMARK   60  A    between atoms: _162  and  _163
REMARK   61  A    between atoms: _165  and  _167
REMARK   62  A    between atoms: _167  and  _168
REMARK   63  A    between atoms: _167  and  _170
REMARK   64  A    between atoms: _170  and  _171
REMARK   65  A    between atoms: _177  and  _179
REMARK   66  A    between atoms: _179  and  _180
REMARK   67  A    between atoms: _183  and  _185
REMARK   68  A    between atoms: _185  and  _186
REMARK   69  A    between atoms: _185  and  _188
REMARK   70  A    between atoms: _188  and  _189
REMARK   71  A    between atoms: _194  and  _195
REMARK   72  A    between atoms: _197  and  _199
REMARK   73  A    between atoms: _199  and  _200
REMARK   74  A    between atoms: _199  and  _202
REMARK   75  A    between atoms: _202  and  _203
REMARK   76  A    between atoms: _203  and  _204
REMARK   77  A    between atoms: _206  and  _208
REMARK   78  A    between atoms: _208  and  _209
REMARK   79  A    between atoms: _208  and  _211
REMARK   80  A    between atoms: _211  and  _212
REMARK   81  A    between atoms: _215  and  _217
REMARK   82  A    between atoms: _217  and  _218
REMARK   83  A    between atoms: _217  and  _220
REMARK   84  A    between atoms: _223  and  _225
REMARK   85  A    between atoms: _225  and  _226
REMARK   86  A    between atoms: _225  and  _228
REMARK   87  A    between atoms: _230  and  _232
REMARK   88  A    between atoms: _232  and  _233
REMARK   89  A    between atoms: _235  and  _237
REMARK   90  A    between atoms: _237  and  _238
REMARK   91  A    between atoms: _237  and  _240
REMARK   92  A    between atoms: _240  and  _241
REMARK   93  A    between atoms: _244  and  _246
REMARK   94  A    between atoms: _246  and  _247
REMARK   95  A    between atoms: _246  and  _249
REMARK   96  A    between atoms: _249  and  _250
REMARK   97  A    between atoms: _253  and  _255
REMARK   98  A    between atoms: _255  and  _256
REMARK   99  A    between atoms: _255  and  _258
REMARK  100  A    between atoms: _258  and  _259
REMARK  101  A    between atoms: _262  and  _264
REMARK  102  A    between atoms: _264  and  _265
REMARK  103  A    between atoms: _264  and  _267
REMARK  104  A    between atoms: _270  and  _272
REMARK  105  A    between atoms: _272  and  _273
REMARK  106  A    between atoms: _272  and  _275
REMARK  107  A    between atoms: _278  and  _280
REMARK  108  A    between atoms: _280  and  _281
REMARK  109  A    between atoms: _280  and  _283
REMARK  110  A    between atoms: _283  and  _284
REMARK  111  A    between atoms: _287  and  _289
REMARK  112  A    between atoms: _289  and  _290
REMARK  113  A    between atoms: _289  and  _292
REMARK  114  A    between atoms: _292  and  _293
REMARK  115  A    between atoms: _293  and  _294
REMARK  116  A    between atoms: _297  and  _299
REMARK  117  A    between atoms: _299  and  _300
REMARK  118  A    between atoms: _299  and  _302
REMARK  119  A    between atoms: _302  and  _303
REMARK  120  A    between atoms: _306  and  _308
REMARK  121  A    between atoms: _308  and  _309
REMARK  122  A    between atoms: _308  and  _311
REMARK  123  A    between atoms: _311  and  _312
REMARK  124  A    between atoms: _315  and  _317
REMARK  125  A    between atoms: _317  and  _318
REMARK  126  A    between atoms: _317  and  _320
REMARK  127  A    between atoms: _320  and  _321
REMARK  128  A    between atoms: _321  and  _322
REMARK  129  A    between atoms: _325  and  _327
REMARK  130  A    between atoms: _327  and  _328
REMARK  131  A    between atoms: _327  and  _330
REMARK  132  A    between atoms: _330  and  _331
REMARK  133  A    between atoms: _334  and  _336
REMARK  134  A    between atoms: _336  and  _337
REMARK  135  A    between atoms: _336  and  _339
REMARK  136  A    between atoms: _339  and  _340
REMARK  137  A    between atoms: _343  and  _345
REMARK  138  A    between atoms: _345  and  _346
REMARK  139  A    between atoms: _345  and  _348
REMARK  140  A    between atoms: _348  and  _349
REMARK  141  A    between atoms: _352  and  _354
REMARK  142  A    between atoms: _354  and  _355
REMARK  143  A    between atoms: _354  and  _357
REMARK  144  A    between atoms: _357  and  _358
REMARK  145  A    between atoms: _360  and  _362
REMARK  146  A    between atoms: _362  and  _363
REMARK  147  A    between atoms: _362  and  _365
REMARK  148  A    between atoms: _367  and  _369
REMARK  149  A    between atoms: _369  and  _370
REMARK  150  A    between atoms: _369  and  _372
REMARK  151  A    between atoms: _372  and  _373
REMARK  152  A    between atoms: _375  and  _377
REMARK  153  A    between atoms: _377  and  _378
REMARK  154  A    between atoms: _377  and  _380
REMARK  155  A    between atoms: _380  and  _381
REMARK  156  A    between atoms: _383  and  _385
REMARK  157  A    between atoms: _385  and  _386
REMARK  158  A    between atoms: _385  and  _388
REMARK  159  A    between atoms: _388  and  _389
REMARK  160  A    between atoms: _394  and  _396
REMARK  161  A    between atoms: _396  and  _397
REMARK  162  A    between atoms: _396  and  _399
REMARK  163  A    between atoms: _402  and  _404
REMARK  164  A    between atoms: _404  and  _405
REMARK  165  A    between atoms: _404  and  _407
REMARK  166  A    between atoms: _407  and  _408
REMARK  167  A    between atoms: _413  and  _414
REMARK  168  A    between atoms: _416  and  _418
REMARK  169  A    between atoms: _418  and  _419
REMARK  170  A    between atoms: _418  and  _421
REMARK  171  A    between atoms: _421  and  _422
REMARK  172  A    between atoms: _425  and  _427
REMARK  173  A    between atoms: _427  and  _428
REMARK  174  A    between atoms: _427  and  _430
REMARK  175  A    between atoms: _430  and  _431
REMARK  176  A    between atoms: _434  and  _436
REMARK  177  A    between atoms: _436  and  _437
REMARK  178  A    between atoms: _436  and  _439
REMARK  179  A    between atoms: _439  and  _440
REMARK  180  A    between atoms: _440  and  _441
REMARK  181  A    between atoms: _441  and  _442
REMARK  182  A    between atoms: _451  and  _453
REMARK  183  A    between atoms: _453  and  _454
REMARK  184  A    between atoms: _456  and  _458
REMARK  185  A    between atoms: _458  and  _459
REMARK  186  A    between atoms: _458  and  _461
REMARK  187  A    between atoms: _461  and  _462
REMARK  188  A    between atoms: _467  and  _469
REMARK  189  A    between atoms: _469  and  _470
REMARK  190  A    between atoms: _469  and  _472
REMARK  191  A    between atoms: _472  and  _473
REMARK  192  A    between atoms: _476  and  _478
REMARK  193  A    between atoms: _478  and  _479
REMARK  194  A    between atoms: _478  and  _481
REMARK  195  A    between atoms: _481  and  _482
REMARK  196  A    between atoms: _482  and  _483
REMARK  197  A    between atoms: _485  and  _487
REMARK  198  A    between atoms: _487  and  _488
REMARK  199  A    between atoms: _487  and  _490
REMARK  200  A    between atoms: _490  and  _491
REMARK  201  A    between atoms: _496  and  _497
REMARK  202  A    between atoms: _499  and  _501
REMARK  203  A    between atoms: _501  and  _502
REMARK  204  A    between atoms: _506  and  _507
REMARK  205  A    between atoms: _512  and  _514
REMARK  206  A    between atoms: _514  and  _515
REMARK  207  A    between atoms: _514  and  _517
REMARK  208  A    between atoms: _517  and  _518
REMARK  209  A    between atoms: _521  and  _523
REMARK  210  A    between atoms: _523  and  _524
REMARK  211  A    between atoms: _523  and  _526
REMARK  212  A    between atoms: _526  and  _527
REMARK  213  A    between atoms: _527  and  _528
REMARK  214  A    between atoms: _533  and  _535
REMARK  215  A    between atoms: _535  and  _536
REMARK  216  A    between atoms: _535  and  _538
REMARK  217  A    between atoms: _538  and  _539
REMARK  218  A    between atoms: _542  and  _544
REMARK  219  A    between atoms: _544  and  _545
REMARK  220  A    between atoms: _544  and  _547
REMARK  221  A    between atoms: _547  and  _548
REMARK  222  A    between atoms: _553  and  _554
REMARK  223  A    between atoms: _556  and  _558
REMARK  224  A    between atoms: _558  and  _559
REMARK  225  A    between atoms: _561  and  _563
REMARK  226  A    between atoms: _563  and  _564
REMARK  227  A    between atoms: _563  and  _566
REMARK  228  A    between atoms: _566  and  _567
REMARK  229  A    between atoms: _570  and  _572
REMARK  230  A    between atoms: _572  and  _573
REMARK  231  A    between atoms: _572  and  _575
REMARK  232  A    between atoms: _575  and  _576
REMARK  233  A    between atoms: _581  and  _583
REMARK  234  A    between atoms: _583  and  _584
REMARK  235  A    between atoms: _583  and  _586
REMARK  236  A    between atoms: _586  and  _587
REMARK  237  A    between atoms: _593  and  _595
REMARK  238  A    between atoms: _595  and  _596
REMARK  239  A    between atoms: _599  and  _601
REMARK  240  A    between atoms: _601  and  _602
REMARK  241  A    between atoms: _604  and  _606
REMARK  242  A    between atoms: _606  and  _607
REMARK  243  A    between atoms: _606  and  _609
REMARK  244  A    between atoms: _609  and  _610
REMARK  245  A    between atoms: _615  and  _616
REMARK                            x       y       z     vdW  Elec       q    Type
REMARK                         _______ _______ _______ _____ _____    ______ ____
ROOT
ATOM      1  O   HOH     1     -15.068 -10.389  -0.630  0.00  0.00    +0.000 OA
ENDROOT
TORSDOF 0
REMARK  Name = ../refined-set-2016/3fql/3fql_pocket.pdb
REMARK  245 active torsions:
REMARK  status: ('A' for Active; 'I' for Inactive)
REMARK    1  A    between atoms: _1  and  _3
REMARK    2  A    between atoms: _3  and  _4
REMARK    3  A    between atoms: _3  and  _6
REMARK    4  A    between atoms: _6  and  _7
REMARK    5  A    between atoms: _9  and  _11
REMARK    6  A    between atoms: _11  and  _12
REMARK    7  A    between atoms: _11  and  _14
REMARK    8  A    between atoms: _14  and  _15
REMARK    9  A    between atoms: _20  and  _21
REMARK   10  A    between atoms: _23  and  _25
REMARK   11  A    between atoms: _25  and  _26
REMARK   12  A    between atoms: _28  and  _30
REMARK   13  A    between atoms: _30  and  _31
REMARK   14  A    between atoms: _30  and  _33
REMARK   15  A    between atoms: _33  and  _34
REMARK   16  A    between atoms: _40  and  _42
REMARK   17  A    between atoms: _42  and  _43
REMARK   18  A    between atoms: _42  and  _45
REMARK   19  A    between atoms: _45  and  _46
REMARK   20  A    between atoms: _46  and  _47
REMARK   21  A    between atoms: _52  and  _54
REMARK   22  A    between atoms: _54  and  _55
REMARK   23  A    between atoms: _54  and  _57
REMARK   24  A    between atoms: _57  and  _58
REMARK   25  A    between atoms: _63  and  _64
REMARK   26  A    between atoms: _66  and  _68
REMARK   27  A    between atoms: _68  and  _69
REMARK   28  A    between atoms: _68  and  _71
REMARK   29  A    between atoms: _71  and  _72
REMARK   30  A    between atoms: _75  and  _76
REMARK   31  A    between atoms: _81  and  _83
REMARK   32  A    between atoms: _83  and  _84
REMARK   33  A    between atoms: _86  and  _88
REMARK   34  A    between atoms: _88  and  _89
REMARK   35  A    between atoms: _88  and  _91
REMARK   36  A    between atoms: _91  and  _92
REMARK   37  A    between atoms: _92  and  _93
REMARK   38  A    between atoms: _98  and  _100
REMARK   39  A    between atoms: _100  and  _101
REMARK   40  A    between atoms: _100  and  _103
REMARK   41  A    between atoms: _103  and  _104
REMARK   42  A    between atoms: _104  and  _105
REMARK   43  A    between atoms: _105  and  _106
REMARK   44  A    between atoms: _115  and  _117
REMARK   45  A    between atoms: _117  and  _118
REMARK   46  A    between atoms: _117  and  _120
REMARK   47  A    between atoms: _123  and  _125
REMARK   48  A    between atoms: _125  and  _126
REMARK   49  A    between atoms: _125  and  _128
REMARK   50  A    between atoms: _128  and  _129
REMARK   51  A    between atoms: _135  and  _137
REMARK   52  A    between atoms: _137  and  _138
REMARK   53  A    between atoms: _137  and  _140
REMARK   54  A    between atoms: _140  and  _141
REMARK   55  A    between atoms: _144  and  _146
REMARK   56  A    between atoms: _146  and  _147
REMARK   57  A    between atoms: _146  and  _149
REMARK   58  A    between atoms: _149  and  _150
REMARK   59  A    between atoms: _160  and  _162
REMARK   60  A    between atoms: _162  and  _163
REMARK   61  A    between atoms: _165  and  _167
REMARK   62  A    between atoms: _167  and  _168
REMARK   63  A    between atoms: _167  and  _170
REMARK   64  A    between atoms: _170  and  _171
REMARK   65  A    between atoms: _177  and  _179
REMARK   66  A    between atoms: _179  and  _180
REMARK   67  A    between atoms: _183  and  _185
REMARK   68  A    between atoms: _185  and  _186
REMARK   69  A    between atoms: _185  and  _188
REMARK   70  A    between atoms: _188  and  _189
REMARK   71  A    between atoms: _194  and  _195
REMARK   72  A    between atoms: _197  and  _199
REMARK   73  A    between atoms: _199  and  _200
REMARK   74  A    between atoms: _199  and  _202
REMARK   75  A    between atoms: _202  and  _203
REMARK   76  A    between atoms: _203  and  _204
REMARK   77  A    between atoms: _206  and  _208
REMARK   78  A    between atoms: _208  and  _209
REMARK   79  A    between atoms: _208  and  _211
REMARK   80  A    between atoms: _211  and  _212
REMARK   81  A    between atoms: _215  and  _217
REMARK   82  A    between atoms: _217  and  _218
REMARK   83  A    between atoms: _217  and  _220
REMARK   84  A    between atoms: _223  and  _225
REMARK   85  A    between atoms: _225  and  _226
REMARK   86  A    between atoms: _225  and  _228
REMARK   87  A    between atoms: _230  and  _232
REMARK   88  A    between atoms: _232  and  _233
REMARK   89  A    between atoms: _235  and  _237
REMARK   90  A    between atoms: _237  and  _238
REMARK   91  A    between atoms: _237  and  _240
REMARK   92  A    between atoms: _240  and  _241
REMARK   93  A    between atoms: _244  and  _246
REMARK   94  A    between atoms: _246  and  _247
REMARK   95  A    between atoms: _246  and  _249
REMARK   96  A    between atoms: _249  and  _250
REMARK   97  A    between atoms: _253  and  _255
REMARK   98  A    between atoms: _255  and  _256
REMARK   99  A    between atoms: _255  and  _258
REMARK  100  A    between atoms: _258  and  _259
REMARK  101  A    between atoms: _262  and  _264
REMARK  102  A    between atoms: _264  and  _265
REMARK  103  A    between atoms: _264  and  _267
REMARK  104  A    between atoms: _270  and  _272
REMARK  105  A    between atoms: _272  and  _273
REMARK  106  A    between atoms: _272  and  _275
REMARK  107  A    between atoms: _278  and  _280
REMARK  108  A    between atoms: _280  and  _281
REMARK  109  A    between atoms: _280  and  _283
REMARK  110  A    between atoms: _283  and  _284
REMARK  111  A    between atoms: _287  and  _289
REMARK  112  A    between atoms: _289  and  _290
REMARK  113  A    between atoms: _289  and  _292
REMARK  114  A    between atoms: _292  and  _293
REMARK  115  A    between atoms: _293  and  _294
REMARK  116  A    between atoms: _297  and  _299
REMARK  117  A    between atoms: _299  and  _300
REMARK  118  A    between atoms: _299  and  _302
REMARK  119  A    between atoms: _302  and  _303
REMARK  120  A    between atoms: _306  and  _308
REMARK  121  A    between atoms: _308  and  _309
REMARK  122  A    between atoms: _308  and  _311
REMARK  123  A    between atoms: _311  and  _312
REMARK  124  A    between atoms: _315  and  _317
REMARK  125  A    between atoms: _317  and  _318
REMARK  126  A    between atoms: _317  and  _320
REMARK  127  A    between atoms: _320  and  _321
REMARK  128  A    between atoms: _321  and  _322
REMARK  129  A    between atoms: _325  and  _327
REMARK  130  A    between atoms: _327  and  _328
REMARK  131  A    between atoms: _327  and  _330
REMARK  132  A    between atoms: _330  and  _331
REMARK  133  A    between atoms: _334  and  _336
REMARK  134  A    between atoms: _336  and  _337
REMARK  135  A    between atoms: _336  and  _339
REMARK  136  A    between atoms: _339  and  _340
REMARK  137  A    between atoms: _343  and  _345
REMARK  138  A    between atoms: _345  and  _346
REMARK  139  A    between atoms: _345  and  _348
REMARK  140  A    between atoms: _348  and  _349
REMARK  141  A    between atoms: _352  and  _354
REMARK  142  A    between atoms: _354  and  _355
REMARK  143  A    between atoms: _354  and  _357
REMARK  144  A    between atoms: _357  and  _358
REMARK  145  A    between atoms: _360  and  _362
REMARK  146  A    between atoms: _362  and  _363
REMARK  147  A    between atoms: _362  and  _365
REMARK  148  A    between atoms: _367  and  _369
REMARK  149  A    between atoms: _369  and  _370
REMARK  150  A    between atoms: _369  and  _372
REMARK  151  A    between atoms: _372  and  _373
REMARK  152  A    between atoms: _375  and  _377
REMARK  153  A    between atoms: _377  and  _378
REMARK  154  A    between atoms: _377  and  _380
REMARK  155  A    between atoms: _380  and  _381
REMARK  156  A    between atoms: _383  and  _385
REMARK  157  A    between atoms: _385  and  _386
REMARK  158  A    between atoms: _385  and  _388
REMARK  159  A    between atoms: _388  and  _389
REMARK  160  A    between atoms: _394  and  _396
REMARK  161  A    between atoms: _396  and  _397
REMARK  162  A    between atoms: _396  and  _399
REMARK  163  A    between atoms: _402  and  _404
REMARK  164  A    between atoms: _404  and  _405
REMARK  165  A    between atoms: _404  and  _407
REMARK  166  A    between atoms: _407  and  _408
REMARK  167  A    between atoms: _413  and  _414
REMARK  168  A    between atoms: _416  and  _418
REMARK  169  A    between atoms: _418  and  _419
REMARK  170  A    between atoms: _418  and  _421
REMARK  171  A    between atoms: _421  and  _422
REMARK  172  A    between atoms: _425  and  _427
REMARK  173  A    between atoms: _427  and  _428
REMARK  174  A    between atoms: _427  and  _430
REMARK  175  A    between atoms: _430  and  _431
REMARK  176  A    between atoms: _434  and  _436
REMARK  177  A    between atoms: _436  and  _437
REMARK  178  A    between atoms: _436  and  _439
REMARK  179  A    between atoms: _439  and  _440
REMARK  180  A    between atoms: _440  and  _441
REMARK  181  A    between atoms: _441  and  _442
REMARK  182  A    between atoms: _451  and  _453
REMARK  183  A    between atoms: _453  and  _454
REMARK  184  A    between atoms: _456  and  _458
REMARK  185  A    between atoms: _458  and  _459
REMARK  186  A    between atoms: _458  and  _461
REMARK  187  A    between atoms: _461  and  _462
REMARK  188  A    between atoms: _467  and  _469
REMARK  189  A    between atoms: _469  and  _470
REMARK  190  A    between atoms: _469  and  _472
REMARK  191  A    between atoms: _472  and  _473
REMARK  192  A    between atoms: _476  and  _478
REMARK  193  A    between atoms: _478  and  _479
REMARK  194  A    between atoms: _478  and  _481
REMARK  195  A    between atoms: _481  and  _482
REMARK  196  A    between atoms: _482  and  _483
REMARK  197  A    between atoms: _485  and  _487
REMARK  198  A    between atoms: _487  and  _488
REMARK  199  A    between atoms: _487  and  _490
REMARK  200  A    between atoms: _490  and  _491
REMARK  201  A    between atoms: _496  and  _497
REMARK  202  A    between atoms: _499  and  _501
REMARK  203  A    between atoms: _501  and  _502
REMARK  204  A    between atoms: _506  and  _507
REMARK  205  A    between atoms: _512  and  _514
REMARK  206  A    between atoms: _514  and  _515
REMARK  207  A    between atoms: _514  and  _517
REMARK  208  A    between atoms: _517  and  _518
REMARK  209  A    between atoms: _521  and  _523
REMARK  210  A    between atoms: _523  and  _524
REMARK  211  A    between atoms: _523  and  _526
REMARK  212  A    between atoms: _526  and  _527
REMARK  213  A    between atoms: _527  and  _528
REMARK  214  A    between atoms: _533  and  _535
REMARK  215  A    between atoms: _535  and  _536
REMARK  216  A    between atoms: _535  and  _538
REMARK  217  A    between atoms: _538  and  _539
REMARK  218  A    between atoms: _542  and  _544
REMARK  219  A    between atoms: _544  and  _545
REMARK  220  A    between atoms: _544  and  _547
REMARK  221  A    between atoms: _547  and  _548
REMARK  222  A    between atoms: _553  and  _554
REMARK  223  A    between atoms: _556  and  _558
REMARK  224  A    between atoms: _558  and  _559
REMARK  225  A    between atoms: _561  and  _563
REMARK  226  A    between atoms: _563  and  _564
REMARK  227  A    between atoms: _563  and  _566
REMARK  228  A    between atoms: _566  and  _567
REMARK  229  A    between atoms: _570  and  _572
REMARK  230  A    between atoms: _572  and  _573
REMARK  231  A    between atoms: _572  and  _575
REMARK  232  A    between atoms: _575  and  _576
REMARK  233  A    between atoms: _581  and  _583
REMARK  234  A    between atoms: _583  and  _584
REMARK  235  A    between atoms: _583  and  _586
REMARK  236  A    between atoms: _586  and  _587
REMARK  237  A    between atoms: _593  and  _595
REMARK  238  A    between atoms: _595  and  _596
REMARK  239  A    between atoms: _599  and  _601
REMARK  240  A    between atoms: _601  and  _602
REMARK  241  A    between atoms: _604  and  _606
REMARK  242  A    between atoms: _606  and  _607
REMARK  243  A    between atoms: _606  and  _609
REMARK  244  A    between atoms: _609  and  _610
REMARK  245  A    between atoms: _615  and  _616
REMARK                            x       y       z     vdW  Elec       q    Type
REMARK                         _______ _______ _______ _____ _____    ______ ____
ROOT
ATOM      1  O   HOH     1     -25.877 -19.633  12.366  0.00  0.00    +0.000 OA
ENDROOT
TORSDOF 0
REMARK  Name = ../refined-set-2016/3fql/3fql_pocket.pdb
REMARK  245 active torsions:
REMARK  status: ('A' for Active; 'I' for Inactive)
REMARK    1  A    between atoms: _1  and  _3
REMARK    2  A    between atoms: _3  and  _4
REMARK    3  A    between atoms: _3  and  _6
REMARK    4  A    between atoms: _6  and  _7
REMARK    5  A    between atoms: _9  and  _11
REMARK    6  A    between atoms: _11  and  _12
REMARK    7  A    between atoms: _11  and  _14
REMARK    8  A    between atoms: _14  and  _15
REMARK    9  A    between atoms: _20  and  _21
REMARK   10  A    between atoms: _23  and  _25
REMARK   11  A    between atoms: _25  and  _26
REMARK   12  A    between atoms: _28  and  _30
REMARK   13  A    between atoms: _30  and  _31
REMARK   14  A    between atoms: _30  and  _33
REMARK   15  A    between atoms: _33  and  _34
REMARK   16  A    between atoms: _40  and  _42
REMARK   17  A    between atoms: _42  and  _43
REMARK   18  A    between atoms: _42  and  _45
REMARK   19  A    between atoms: _45  and  _46
REMARK   20  A    between atoms: _46  and  _47
REMARK   21  A    between atoms: _52  and  _54
REMARK   22  A    between atoms: _54  and  _55
REMARK   23  A    between atoms: _54  and  _57
REMARK   24  A    between atoms: _57  and  _58
REMARK   25  A    between atoms: _63  and  _64
REMARK   26  A    between atoms: _66  and  _68
REMARK   27  A    between atoms: _68  and  _69
REMARK   28  A    between atoms: _68  and  _71
REMARK   29  A    between atoms: _71  and  _72
REMARK   30  A    between atoms: _75  and  _76
REMARK   31  A    between atoms: _81  and  _83
REMARK   32  A    between atoms: _83  and  _84
REMARK   33  A    between atoms: _86  and  _88
REMARK   34  A    between atoms: _88  and  _89
REMARK   35  A    between atoms: _88  and  _91
REMARK   36  A    between atoms: _91  and  _92
REMARK   37  A    between atoms: _92  and  _93
REMARK   38  A    between atoms: _98  and  _100
REMARK   39  A    between atoms: _100  and  _101
REMARK   40  A    between atoms: _100  and  _103
REMARK   41  A    between atoms: _103  and  _104
REMARK   42  A    between atoms: _104  and  _105
REMARK   43  A    between atoms: _105  and  _106
REMARK   44  A    between atoms: _115  and  _117
REMARK   45  A    between atoms: _117  and  _118
REMARK   46  A    between atoms: _117  and  _120
REMARK   47  A    between atoms: _123  and  _125
REMARK   48  A    between atoms: _125  and  _126
REMARK   49  A    between atoms: _125  and  _128
REMARK   50  A    between atoms: _128  and  _129
REMARK   51  A    between atoms: _135  and  _137
REMARK   52  A    between atoms: _137  and  _138
REMARK   53  A    between atoms: _137  and  _140
REMARK   54  A    between atoms: _140  and  _141
REMARK   55  A    between atoms: _144  and  _146
REMARK   56  A    between atoms: _146  and  _147
REMARK   57  A    between atoms: _146  and  _149
REMARK   58  A    between atoms: _149  and  _150
REMARK   59  A    between atoms: _160  and  _162
REMARK   60  A    between atoms: _162  and  _163
REMARK   61  A    between atoms: _165  and  _167
REMARK   62  A    between atoms: _167  and  _168
REMARK   63  A    between atoms: _167  and  _170
REMARK   64  A    between atoms: _170  and  _171
REMARK   65  A    between atoms: _177  and  _179
REMARK   66  A    between atoms: _179  and  _180
REMARK   67  A    between atoms: _183  and  _185
REMARK   68  A    between atoms: _185  and  _186
REMARK   69  A    between atoms: _185  and  _188
REMARK   70  A    between atoms: _188  and  _189
REMARK   71  A    between atoms: _194  and  _195
REMARK   72  A    between atoms: _197  and  _199
REMARK   73  A    between atoms: _199  and  _200
REMARK   74  A    between atoms: _199  and  _202
REMARK   75  A    between atoms: _202  and  _203
REMARK   76  A    between atoms: _203  and  _204
REMARK   77  A    between atoms: _206  and  _208
REMARK   78  A    between atoms: _208  and  _209
REMARK   79  A    between atoms: _208  and  _211
REMARK   80  A    between atoms: _211  and  _212
REMARK   81  A    between atoms: _215  and  _217
REMARK   82  A    between atoms: _217  and  _218
REMARK   83  A    between atoms: _217  and  _220
REMARK   84  A    between atoms: _223  and  _225
REMARK   85  A    between atoms: _225  and  _226
REMARK   86  A    between atoms: _225  and  _228
REMARK   87  A    between atoms: _230  and  _232
REMARK   88  A    between atoms: _232  and  _233
REMARK   89  A    between atoms: _235  and  _237
REMARK   90  A    between atoms: _237  and  _238
REMARK   91  A    between atoms: _237  and  _240
REMARK   92  A    between atoms: _240  and  _241
REMARK   93  A    between atoms: _244  and  _246
REMARK   94  A    between atoms: _246  and  _247
REMARK   95  A    between atoms: _246  and  _249
REMARK   96  A    between atoms: _249  and  _250
REMARK   97  A    between atoms: _253  and  _255
REMARK   98  A    between atoms: _255  and  _256
REMARK   99  A    between atoms: _255  and  _258
REMARK  100  A    between atoms: _258  and  _259
REMARK  101  A    between atoms: _262  and  _264
REMARK  102  A    between atoms: _264  and  _265
REMARK  103  A    between atoms: _264  and  _267
REMARK  104  A    between atoms: _270  and  _272
REMARK  105  A    between atoms: _272  and  _273
REMARK  106  A    between atoms: _272  and  _275
REMARK  107  A    between atoms: _278  and  _280
REMARK  108  A    between atoms: _280  and  _281
REMARK  109  A    between atoms: _280  and  _283
REMARK  110  A    between atoms: _283  and  _284
REMARK  111  A    between atoms: _287  and  _289
REMARK  112  A    between atoms: _289  and  _290
REMARK  113  A    between atoms: _289  and  _292
REMARK  114  A    between atoms: _292  and  _293
REMARK  115  A    between atoms: _293  and  _294
REMARK  116  A    between atoms: _297  and  _299
REMARK  117  A    between atoms: _299  and  _300
REMARK  118  A    between atoms: _299  and  _302
REMARK  119  A    between atoms: _302  and  _303
REMARK  120  A    between atoms: _306  and  _308
REMARK  121  A    between atoms: _308  and  _309
REMARK  122  A    between atoms: _308  and  _311
REMARK  123  A    between atoms: _311  and  _312
REMARK  124  A    between atoms: _315  and  _317
REMARK  125  A    between atoms: _317  and  _318
REMARK  126  A    between atoms: _317  and  _320
REMARK  127  A    between atoms: _320  and  _321
REMARK  128  A    between atoms: _321  and  _322
REMARK  129  A    between atoms: _325  and  _327
REMARK  130  A    between atoms: _327  and  _328
REMARK  131  A    between atoms: _327  and  _330
REMARK  132  A    between atoms: _330  and  _331
REMARK  133  A    between atoms: _334  and  _336
REMARK  134  A    between atoms: _336  and  _337
REMARK  135  A    between atoms: _336  and  _339
REMARK  136  A    between atoms: _339  and  _340
REMARK  137  A    between atoms: _343  and  _345
REMARK  138  A    between atoms: _345  and  _346
REMARK  139  A    between atoms: _345  and  _348
REMARK  140  A    between atoms: _348  and  _349
REMARK  141  A    between atoms: _352  and  _354
REMARK  142  A    between atoms: _354  and  _355
REMARK  143  A    between atoms: _354  and  _357
REMARK  144  A    between atoms: _357  and  _358
REMARK  145  A    between atoms: _360  and  _362
REMARK  146  A    between atoms: _362  and  _363
REMARK  147  A    between atoms: _362  and  _365
REMARK  148  A    between atoms: _367  and  _369
REMARK  149  A    between atoms: _369  and  _370
REMARK  150  A    between atoms: _369  and  _372
REMARK  151  A    between atoms: _372  and  _373
REMARK  152  A    between atoms: _375  and  _377
REMARK  153  A    between atoms: _377  and  _378
REMARK  154  A    between atoms: _377  and  _380
REMARK  155  A    between atoms: _380  and  _381
REMARK  156  A    between atoms: _383  and  _385
REMARK  157  A    between atoms: _385  and  _386
REMARK  158  A    between atoms: _385  and  _388
REMARK  159  A    between atoms: _388  and  _389
REMARK  160  A    between atoms: _394  and  _396
REMARK  161  A    between atoms: _396  and  _397
REMARK  162  A    between atoms: _396  and  _399
REMARK  163  A    between atoms: _402  and  _404
REMARK  164  A    between atoms: _404  and  _405
REMARK  165  A    between atoms: _404  and  _407
REMARK  166  A    between atoms: _407  and  _408
REMARK  167  A    between atoms: _413  and  _414
REMARK  168  A    between atoms: _416  and  _418
REMARK  169  A    between atoms: _418  and  _419
REMARK  170  A    between atoms: _418  and  _421
REMARK  171  A    between atoms: _421  and  _422
REMARK  172  A    between atoms: _425  and  _427
REMARK  173  A    between atoms: _427  and  _428
REMARK  174  A    between atoms: _427  and  _430
REMARK  175  A    between atoms: _430  and  _431
REMARK  176  A    between atoms: _434  and  _436
REMARK  177  A    between atoms: _436  and  _437
REMARK  178  A    between atoms: _436  and  _439
REMARK  179  A    between atoms: _439  and  _440
REMARK  180  A    between atoms: _440  and  _441
REMARK  181  A    between atoms: _441  and  _442
REMARK  182  A    between atoms: _451  and  _453
REMARK  183  A    between atoms: _453  and  _454
REMARK  184  A    between atoms: _456  and  _458
REMARK  185  A    between atoms: _458  and  _459
REMARK  186  A    between atoms: _458  and  _461
REMARK  187  A    between atoms: _461  and  _462
REMARK  188  A    between atoms: _467  and  _469
REMARK  189  A    between atoms: _469  and  _470
REMARK  190  A    between atoms: _469  and  _472
REMARK  191  A    between atoms: _472  and  _473
REMARK  192  A    between atoms: _476  and  _478
REMARK  193  A    between atoms: _478  and  _479
REMARK  194  A    between atoms: _478  and  _481
REMARK  195  A    between atoms: _481  and  _482
REMARK  196  A    between atoms: _482  and  _483
REMARK  197  A    between atoms: _485  and  _487
REMARK  198  A    between atoms: _487  and  _488
REMARK  199  A    between atoms: _487  and  _490
REMARK  200  A    between atoms: _490  and  _491
REMARK  201  A    between atoms: _496  and  _497
REMARK  202  A    between atoms: _499  and  _501
REMARK  203  A    between atoms: _501  and  _502
REMARK  204  A    between atoms: _506  and  _507
REMARK  205  A    between atoms: _512  and  _514
REMARK  206  A    between atoms: _514  and  _515
REMARK  207  A    between atoms: _514  and  _517
REMARK  208  A    between atoms: _517  and  _518
REMARK  209  A    between atoms: _521  and  _523
REMARK  210  A    between atoms: _523  and  _524
REMARK  211  A    between atoms: _523  and  _526
REMARK  212  A    between atoms: _526  and  _527
REMARK  213  A    between atoms: _527  and  _528
REMARK  214  A    between atoms: _533  and  _535
REMARK  215  A    between atoms: _535  and  _536
REMARK  216  A    between atoms: _535  and  _538
REMARK  217  A    between atoms: _538  and  _539
REMARK  218  A    between atoms: _542  and  _544
REMARK  219  A    between atoms: _544  and  _545
REMARK  220  A    between atoms: _544  and  _547
REMARK  221  A    between atoms: _547  and  _548
REMARK  222  A    between atoms: _553  and  _554
REMARK  223  A    between atoms: _556  and  _558
REMARK  224  A    between atoms: _558  and  _559
REMARK  225  A    between atoms: _561  and  _563
REMARK  226  A    between atoms: _563  and  _564
REMARK  227  A    between atoms: _563  and  _566
REMARK  228  A    between atoms: _566  and  _567
REMARK  229  A    between atoms: _570  and  _572
REMARK  230  A    between atoms: _572  and  _573
REMARK  231  A    between atoms: _572  and  _575
REMARK  232  A    between atoms: _575  and  _576
REMARK  233  A    between atoms: _581  and  _583
REMARK  234  A    between atoms: _583  and  _584
REMARK  235  A    between atoms: _583  and  _586
REMARK  236  A    between atoms: _586  and  _587
REMARK  237  A    between atoms: _593  and  _595
REMARK  238  A    between atoms: _595  and  _596
REMARK  239  A    between atoms: _599  and  _601
REMARK  240  A    between atoms: _601  and  _602
REMARK  241  A    between atoms: _604  and  _606
REMARK  242  A    between atoms: _606  and  _607
REMARK  243  A    between atoms: _606  and  _609
REMARK  244  A    between atoms: _609  and  _610
REMARK  245  A    between atoms: _615  and  _616
REMARK                            x       y       z     vdW  Elec       q    Type
REMARK                         _______ _______ _______ _____ _____    ______ ____
ROOT
ATOM      1  O   HOH     1     -21.567  -3.871  10.237  0.00  0.00    +0.000 OA
ENDROOT
TORSDOF 0
REMARK  Name = ../refined-set-2016/3fql/3fql_pocket.pdb
REMARK  245 active torsions:
REMARK  status: ('A' for Active; 'I' for Inactive)
REMARK    1  A    between atoms: _1  and  _3
REMARK    2  A    between atoms: _3  and  _4
REMARK    3  A    between atoms: _3  and  _6
REMARK    4  A    between atoms: _6  and  _7
REMARK    5  A    between atoms: _9  and  _11
REMARK    6  A    between atoms: _11  and  _12
REMARK    7  A    between atoms: _11  and  _14
REMARK    8  A    between atoms: _14  and  _15
REMARK    9  A    between atoms: _20  and  _21
REMARK   10  A    between atoms: _23  and  _25
REMARK   11  A    between atoms: _25  and  _26
REMARK   12  A    between atoms: _28  and  _30
REMARK   13  A    between atoms: _30  and  _31
REMARK   14  A    between atoms: _30  and  _33
REMARK   15  A    between atoms: _33  and  _34
REMARK   16  A    between atoms: _40  and  _42
REMARK   17  A    between atoms: _42  and  _43
REMARK   18  A    between atoms: _42  and  _45
REMARK   19  A    between atoms: _45  and  _46
REMARK   20  A    between atoms: _46  and  _47
REMARK   21  A    between atoms: _52  and  _54
REMARK   22  A    between atoms: _54  and  _55
REMARK   23  A    between atoms: _54  and  _57
REMARK   24  A    between atoms: _57  and  _58
REMARK   25  A    between atoms: _63  and  _64
REMARK   26  A    between atoms: _66  and  _68
REMARK   27  A    between atoms: _68  and  _69
REMARK   28  A    between atoms: _68  and  _71
REMARK   29  A    between atoms: _71  and  _72
REMARK   30  A    between atoms: _75  and  _76
REMARK   31  A    between atoms: _81  and  _83
REMARK   32  A    between atoms: _83  and  _84
REMARK   33  A    between atoms: _86  and  _88
REMARK   34  A    between atoms: _88  and  _89
REMARK   35  A    between atoms: _88  and  _91
REMARK   36  A    between atoms: _91  and  _92
REMARK   37  A    between atoms: _92  and  _93
REMARK   38  A    between atoms: _98  and  _100
REMARK   39  A    between atoms: _100  and  _101
REMARK   40  A    between atoms: _100  and  _103
REMARK   41  A    between atoms: _103  and  _104
REMARK   42  A    between atoms: _104  and  _105
REMARK   43  A    between atoms: _105  and  _106
REMARK   44  A    between atoms: _115  and  _117
REMARK   45  A    between atoms: _117  and  _118
REMARK   46  A    between atoms: _117  and  _120
REMARK   47  A    between atoms: _123  and  _125
REMARK   48  A    between atoms: _125  and  _126
REMARK   49  A    between atoms: _125  and  _128
REMARK   50  A    between atoms: _128  and  _129
REMARK   51  A    between atoms: _135  and  _137
REMARK   52  A    between atoms: _137  and  _138
REMARK   53  A    between atoms: _137  and  _140
REMARK   54  A    between atoms: _140  and  _141
REMARK   55  A    between atoms: _144  and  _146
REMARK   56  A    between atoms: _146  and  _147
REMARK   57  A    between atoms: _146  and  _149
REMARK   58  A    between atoms: _149  and  _150
REMARK   59  A    between atoms: _160  and  _162
REMARK   60  A    between atoms: _162  and  _163
REMARK   61  A    between atoms: _165  and  _167
REMARK   62  A    between atoms: _167  and  _168
REMARK   63  A    between atoms: _167  and  _170
REMARK   64  A    between atoms: _170  and  _171
REMARK   65  A    between atoms: _177  and  _179
REMARK   66  A    between atoms: _179  and  _180
REMARK   67  A    between atoms: _183  and  _185
REMARK   68  A    between atoms: _185  and  _186
REMARK   69  A    between atoms: _185  and  _188
REMARK   70  A    between atoms: _188  and  _189
REMARK   71  A    between atoms: _194  and  _195
REMARK   72  A    between atoms: _197  and  _199
REMARK   73  A    between atoms: _199  and  _200
REMARK   74  A    between atoms: _199  and  _202
REMARK   75  A    between atoms: _202  and  _203
REMARK   76  A    between atoms: _203  and  _204
REMARK   77  A    between atoms: _206  and  _208
REMARK   78  A    between atoms: _208  and  _209
REMARK   79  A    between atoms: _208  and  _211
REMARK   80  A    between atoms: _211  and  _212
REMARK   81  A    between atoms: _215  and  _217
REMARK   82  A    between atoms: _217  and  _218
REMARK   83  A    between atoms: _217  and  _220
REMARK   84  A    between atoms: _223  and  _225
REMARK   85  A    between atoms: _225  and  _226
REMARK   86  A    between atoms: _225  and  _228
REMARK   87  A    between atoms: _230  and  _232
REMARK   88  A    between atoms: _232  and  _233
REMARK   89  A    between atoms: _235  and  _237
REMARK   90  A    between atoms: _237  and  _238
REMARK   91  A    between atoms: _237  and  _240
REMARK   92  A    between atoms: _240  and  _241
REMARK   93  A    between atoms: _244  and  _246
REMARK   94  A    between atoms: _246  and  _247
REMARK   95  A    between atoms: _246  and  _249
REMARK   96  A    between atoms: _249  and  _250
REMARK   97  A    between atoms: _253  and  _255
REMARK   98  A    between atoms: _255  and  _256
REMARK   99  A    between atoms: _255  and  _258
REMARK  100  A    between atoms: _258  and  _259
REMARK  101  A    between atoms: _262  and  _264
REMARK  102  A    between atoms: _264  and  _265
REMARK  103  A    between atoms: _264  and  _267
REMARK  104  A    between atoms: _270  and  _272
REMARK  105  A    between atoms: _272  and  _273
REMARK  106  A    between atoms: _272  and  _275
REMARK  107  A    between atoms: _278  and  _280
REMARK  108  A    between atoms: _280  and  _281
REMARK  109  A    between atoms: _280  and  _283
REMARK  110  A    between atoms: _283  and  _284
REMARK  111  A    between atoms: _287  and  _289
REMARK  112  A    between atoms: _289  and  _290
REMARK  113  A    between atoms: _289  and  _292
REMARK  114  A    between atoms: _292  and  _293
REMARK  115  A    between atoms: _293  and  _294
REMARK  116  A    between atoms: _297  and  _299
REMARK  117  A    between atoms: _299  and  _300
REMARK  118  A    between atoms: _299  and  _302
REMARK  119  A    between atoms: _302  and  _303
REMARK  120  A    between atoms: _306  and  _308
REMARK  121  A    between atoms: _308  and  _309
REMARK  122  A    between atoms: _308  and  _311
REMARK  123  A    between atoms: _311  and  _312
REMARK  124  A    between atoms: _315  and  _317
REMARK  125  A    between atoms: _317  and  _318
REMARK  126  A    between atoms: _317  and  _320
REMARK  127  A    between atoms: _320  and  _321
REMARK  128  A    between atoms: _321  and  _322
REMARK  129  A    between atoms: _325  and  _327
REMARK  130  A    between atoms: _327  and  _328
REMARK  131  A    between atoms: _327  and  _330
REMARK  132  A    between atoms: _330  and  _331
REMARK  133  A    between atoms: _334  and  _336
REMARK  134  A    between atoms: _336  and  _337
REMARK  135  A    between atoms: _336  and  _339
REMARK  136  A    between atoms: _339  and  _340
REMARK  137  A    between atoms: _343  and  _345
REMARK  138  A    between atoms: _345  and  _346
REMARK  139  A    between atoms: _345  and  _348
REMARK  140  A    between atoms: _348  and  _349
REMARK  141  A    between atoms: _352  and  _354
REMARK  142  A    between atoms: _354  and  _355
REMARK  143  A    between atoms: _354  and  _357
REMARK  144  A    between atoms: _357  and  _358
REMARK  145  A    between atoms: _360  and  _362
REMARK  146  A    between atoms: _362  and  _363
REMARK  147  A    between atoms: _362  and  _365
REMARK  148  A    between atoms: _367  and  _369
REMARK  149  A    between atoms: _369  and  _370
REMARK  150  A    between atoms: _369  and  _372
REMARK  151  A    between atoms: _372  and  _373
REMARK  152  A    between atoms: _375  and  _377
REMARK  153  A    between atoms: _377  and  _378
REMARK  154  A    between atoms: _377  and  _380
REMARK  155  A    between atoms: _380  and  _381
REMARK  156  A    between atoms: _383  and  _385
REMARK  157  A    between atoms: _385  and  _386
REMARK  158  A    between atoms: _385  and  _388
REMARK  159  A    between atoms: _388  and  _389
REMARK  160  A    between atoms: _394  and  _396
REMARK  161  A    between atoms: _396  and  _397
REMARK  162  A    between atoms: _396  and  _399
REMARK  163  A    between atoms: _402  and  _404
REMARK  164  A    between atoms: _404  and  _405
REMARK  165  A    between atoms: _404  and  _407
REMARK  166  A    between atoms: _407  and  _408
REMARK  167  A    between atoms: _413  and  _414
REMARK  168  A    between atoms: _416  and  _418
REMARK  169  A    between atoms: _418  and  _419
REMARK  170  A    between atoms: _418  and  _421
REMARK  171  A    between atoms: _421  and  _422
REMARK  172  A    between atoms: _425  and  _427
REMARK  173  A    between atoms: _427  and  _428
REMARK  174  A    between atoms: _427  and  _430
REMARK  175  A    between atoms: _430  and  _431
REMARK  176  A    between atoms: _434  and  _436
REMARK  177  A    between atoms: _436  and  _437
REMARK  178  A    between atoms: _436  and  _439
REMARK  179  A    between atoms: _439  and  _440
REMARK  180  A    between atoms: _440  and  _441
REMARK  181  A    between atoms: _441  and  _442
REMARK  182  A    between atoms: _451  and  _453
REMARK  183  A    between atoms: _453  and  _454
REMARK  184  A    between atoms: _456  and  _458
REMARK  185  A    between atoms: _458  and  _459
REMARK  186  A    between atoms: _458  and  _461
REMARK  187  A    between atoms: _461  and  _462
REMARK  188  A    between atoms: _467  and  _469
REMARK  189  A    between atoms: _469  and  _470
REMARK  190  A    between atoms: _469  and  _472
REMARK  191  A    between atoms: _472  and  _473
REMARK  192  A    between atoms: _476  and  _478
REMARK  193  A    between atoms: _478  and  _479
REMARK  194  A    between atoms: _478  and  _481
REMARK  195  A    between atoms: _481  and  _482
REMARK  196  A    between atoms: _482  and  _483
REMARK  197  A    between atoms: _485  and  _487
REMARK  198  A    between atoms: _487  and  _488
REMARK  199  A    between atoms: _487  and  _490
REMARK  200  A    between atoms: _490  and  _491
REMARK  201  A    between atoms: _496  and  _497
REMARK  202  A    between atoms: _499  and  _501
REMARK  203  A    between atoms: _501  and  _502
REMARK  204  A    between atoms: _506  and  _507
REMARK  205  A    between atoms: _512  and  _514
REMARK  206  A    between atoms: _514  and  _515
REMARK  207  A    between atoms: _514  and  _517
REMARK  208  A    between atoms: _517  and  _518
REMARK  209  A    between atoms: _521  and  _523
REMARK  210  A    between atoms: _523  and  _524
REMARK  211  A    between atoms: _523  and  _526
REMARK  212  A    between atoms: _526  and  _527
REMARK  213  A    between atoms: _527  and  _528
REMARK  214  A    between atoms: _533  and  _535
REMARK  215  A    between atoms: _535  and  _536
REMARK  216  A    between atoms: _535  and  _538
REMARK  217  A    between atoms: _538  and  _539
REMARK  218  A    between atoms: _542  and  _544
REMARK  219  A    between atoms: _544  and  _545
REMARK  220  A    between atoms: _544  and  _547
REMARK  221  A    between atoms: _547  and  _548
REMARK  222  A    between atoms: _553  and  _554
REMARK  223  A    between atoms: _556  and  _558
REMARK  224  A    between atoms: _558  and  _559
REMARK  225  A    between atoms: _561  and  _563
REMARK  226  A    between atoms: _563  and  _564
REMARK  227  A    between atoms: _563  and  _566
REMARK  228  A    between atoms: _566  and  _567
REMARK  229  A    between atoms: _570  and  _572
REMARK  230  A    between atoms: _572  and  _573
REMARK  231  A    between atoms: _572  and  _575
REMARK  232  A    between atoms: _575  and  _576
REMARK  233  A    between atoms: _581  and  _583
REMARK  234  A    between atoms: _583  and  _584
REMARK  235  A    between atoms: _583  and  _586
REMARK  236  A    between atoms: _586  and  _587
REMARK  237  A    between atoms: _593  and  _595
REMARK  238  A    between atoms: _595  and  _596
REMARK  239  A    between atoms: _599  and  _601
REMARK  240  A    between atoms: _601  and  _602
REMARK  241  A    between atoms: _604  and  _606
REMARK  242  A    between atoms: _606  and  _607
REMARK  243  A    between atoms: _606  and  _609
REMARK  244  A    between atoms: _609  and  _610
REMARK  245  A    between atoms: _615  and  _616
REMARK                            x       y       z     vdW  Elec       q    Type
REMARK                         _______ _______ _______ _____ _____    ______ ____
ROOT
ATOM      1  O   HOH     1     -23.447 -13.229  14.829  0.00  0.00    +0.000 OA
ENDROOT
TORSDOF 0
REMARK  Name = ../refined-set-2016/3fql/3fql_pocket.pdb
REMARK  245 active torsions:
REMARK  status: ('A' for Active; 'I' for Inactive)
REMARK    1  A    between atoms: _1  and  _3
REMARK    2  A    between atoms: _3  and  _4
REMARK    3  A    between atoms: _3  and  _6
REMARK    4  A    between atoms: _6  and  _7
REMARK    5  A    between atoms: _9  and  _11
REMARK    6  A    between atoms: _11  and  _12
REMARK    7  A    between atoms: _11  and  _14
REMARK    8  A    between atoms: _14  and  _15
REMARK    9  A    between atoms: _20  and  _21
REMARK   10  A    between atoms: _23  and  _25
REMARK   11  A    between atoms: _25  and  _26
REMARK   12  A    between atoms: _28  and  _30
REMARK   13  A    between atoms: _30  and  _31
REMARK   14  A    between atoms: _30  and  _33
REMARK   15  A    between atoms: _33  and  _34
REMARK   16  A    between atoms: _40  and  _42
REMARK   17  A    between atoms: _42  and  _43
REMARK   18  A    between atoms: _42  and  _45
REMARK   19  A    between atoms: _45  and  _46
REMARK   20  A    between atoms: _46  and  _47
REMARK   21  A    between atoms: _52  and  _54
REMARK   22  A    between atoms: _54  and  _55
REMARK   23  A    between atoms: _54  and  _57
REMARK   24  A    between atoms: _57  and  _58
REMARK   25  A    between atoms: _63  and  _64
REMARK   26  A    between atoms: _66  and  _68
REMARK   27  A    between atoms: _68  and  _69
REMARK   28  A    between atoms: _68  and  _71
REMARK   29  A    between atoms: _71  and  _72
REMARK   30  A    between atoms: _75  and  _76
REMARK   31  A    between atoms: _81  and  _83
REMARK   32  A    between atoms: _83  and  _84
REMARK   33  A    between atoms: _86  and  _88
REMARK   34  A    between atoms: _88  and  _89
REMARK   35  A    between atoms: _88  and  _91
REMARK   36  A    between atoms: _91  and  _92
REMARK   37  A    between atoms: _92  and  _93
REMARK   38  A    between atoms: _98  and  _100
REMARK   39  A    between atoms: _100  and  _101
REMARK   40  A    between atoms: _100  and  _103
REMARK   41  A    between atoms: _103  and  _104
REMARK   42  A    between atoms: _104  and  _105
REMARK   43  A    between atoms: _105  and  _106
REMARK   44  A    between atoms: _115  and  _117
REMARK   45  A    between atoms: _117  and  _118
REMARK   46  A    between atoms: _117  and  _120
REMARK   47  A    between atoms: _123  and  _125
REMARK   48  A    between atoms: _125  and  _126
REMARK   49  A    between atoms: _125  and  _128
REMARK   50  A    between atoms: _128  and  _129
REMARK   51  A    between atoms: _135  and  _137
REMARK   52  A    between atoms: _137  and  _138
REMARK   53  A    between atoms: _137  and  _140
REMARK   54  A    between atoms: _140  and  _141
REMARK   55  A    between atoms: _144  and  _146
REMARK   56  A    between atoms: _146  and  _147
REMARK   57  A    between atoms: _146  and  _149
REMARK   58  A    between atoms: _149  and  _150
REMARK   59  A    between atoms: _160  and  _162
REMARK   60  A    between atoms: _162  and  _163
REMARK   61  A    between atoms: _165  and  _167
REMARK   62  A    between atoms: _167  and  _168
REMARK   63  A    between atoms: _167  and  _170
REMARK   64  A    between atoms: _170  and  _171
REMARK   65  A    between atoms: _177  and  _179
REMARK   66  A    between atoms: _179  and  _180
REMARK   67  A    between atoms: _183  and  _185
REMARK   68  A    between atoms: _185  and  _186
REMARK   69  A    between atoms: _185  and  _188
REMARK   70  A    between atoms: _188  and  _189
REMARK   71  A    between atoms: _194  and  _195
REMARK   72  A    between atoms: _197  and  _199
REMARK   73  A    between atoms: _199  and  _200
REMARK   74  A    between atoms: _199  and  _202
REMARK   75  A    between atoms: _202  and  _203
REMARK   76  A    between atoms: _203  and  _204
REMARK   77  A    between atoms: _206  and  _208
REMARK   78  A    between atoms: _208  and  _209
REMARK   79  A    between atoms: _208  and  _211
REMARK   80  A    between atoms: _211  and  _212
REMARK   81  A    between atoms: _215  and  _217
REMARK   82  A    between atoms: _217  and  _218
REMARK   83  A    between atoms: _217  and  _220
REMARK   84  A    between atoms: _223  and  _225
REMARK   85  A    between atoms: _225  and  _226
REMARK   86  A    between atoms: _225  and  _228
REMARK   87  A    between atoms: _230  and  _232
REMARK   88  A    between atoms: _232  and  _233
REMARK   89  A    between atoms: _235  and  _237
REMARK   90  A    between atoms: _237  and  _238
REMARK   91  A    between atoms: _237  and  _240
REMARK   92  A    between atoms: _240  and  _241
REMARK   93  A    between atoms: _244  and  _246
REMARK   94  A    between atoms: _246  and  _247
REMARK   95  A    between atoms: _246  and  _249
REMARK   96  A    between atoms: _249  and  _250
REMARK   97  A    between atoms: _253  and  _255
REMARK   98  A    between atoms: _255  and  _256
REMARK   99  A    between atoms: _255  and  _258
REMARK  100  A    between atoms: _258  and  _259
REMARK  101  A    between atoms: _262  and  _264
REMARK  102  A    between atoms: _264  and  _265
REMARK  103  A    between atoms: _264  and  _267
REMARK  104  A    between atoms: _270  and  _272
REMARK  105  A    between atoms: _272  and  _273
REMARK  106  A    between atoms: _272  and  _275
REMARK  107  A    between atoms: _278  and  _280
REMARK  108  A    between atoms: _280  and  _281
REMARK  109  A    between atoms: _280  and  _283
REMARK  110  A    between atoms: _283  and  _284
REMARK  111  A    between atoms: _287  and  _289
REMARK  112  A    between atoms: _289  and  _290
REMARK  113  A    between atoms: _289  and  _292
REMARK  114  A    between atoms: _292  and  _293
REMARK  115  A    between atoms: _293  and  _294
REMARK  116  A    between atoms: _297  and  _299
REMARK  117  A    between atoms: _299  and  _300
REMARK  118  A    between atoms: _299  and  _302
REMARK  119  A    between atoms: _302  and  _303
REMARK  120  A    between atoms: _306  and  _308
REMARK  121  A    between atoms: _308  and  _309
REMARK  122  A    between atoms: _308  and  _311
REMARK  123  A    between atoms: _311  and  _312
REMARK  124  A    between atoms: _315  and  _317
REMARK  125  A    between atoms: _317  and  _318
REMARK  126  A    between atoms: _317  and  _320
REMARK  127  A    between atoms: _320  and  _321
REMARK  128  A    between atoms: _321  and  _322
REMARK  129  A    between atoms: _325  and  _327
REMARK  130  A    between atoms: _327  and  _328
REMARK  131  A    between atoms: _327  and  _330
REMARK  132  A    between atoms: _330  and  _331
REMARK  133  A    between atoms: _334  and  _336
REMARK  134  A    between atoms: _336  and  _337
REMARK  135  A    between atoms: _336  and  _339
REMARK  136  A    between atoms: _339  and  _340
REMARK  137  A    between atoms: _343  and  _345
REMARK  138  A    between atoms: _345  and  _346
REMARK  139  A    between atoms: _345  and  _348
REMARK  140  A    between atoms: _348  and  _349
REMARK  141  A    between atoms: _352  and  _354
REMARK  142  A    between atoms: _354  and  _355
REMARK  143  A    between atoms: _354  and  _357
REMARK  144  A    between atoms: _357  and  _358
REMARK  145  A    between atoms: _360  and  _362
REMARK  146  A    between atoms: _362  and  _363
REMARK  147  A    between atoms: _362  and  _365
REMARK  148  A    between atoms: _367  and  _369
REMARK  149  A    between atoms: _369  and  _370
REMARK  150  A    between atoms: _369  and  _372
REMARK  151  A    between atoms: _372  and  _373
REMARK  152  A    between atoms: _375  and  _377
REMARK  153  A    between atoms: _377  and  _378
REMARK  154  A    between atoms: _377  and  _380
REMARK  155  A    between atoms: _380  and  _381
REMARK  156  A    between atoms: _383  and  _385
REMARK  157  A    between atoms: _385  and  _386
REMARK  158  A    between atoms: _385  and  _388
REMARK  159  A    between atoms: _388  and  _389
REMARK  160  A    between atoms: _394  and  _396
REMARK  161  A    between atoms: _396  and  _397
REMARK  162  A    between atoms: _396  and  _399
REMARK  163  A    between atoms: _402  and  _404
REMARK  164  A    between atoms: _404  and  _405
REMARK  165  A    between atoms: _404  and  _407
REMARK  166  A    between atoms: _407  and  _408
REMARK  167  A    between atoms: _413  and  _414
REMARK  168  A    between atoms: _416  and  _418
REMARK  169  A    between atoms: _418  and  _419
REMARK  170  A    between atoms: _418  and  _421
REMARK  171  A    between atoms: _421  and  _422
REMARK  172  A    between atoms: _425  and  _427
REMARK  173  A    between atoms: _427  and  _428
REMARK  174  A    between atoms: _427  and  _430
REMARK  175  A    between atoms: _430  and  _431
REMARK  176  A    between atoms: _434  and  _436
REMARK  177  A    between atoms: _436  and  _437
REMARK  178  A    between atoms: _436  and  _439
REMARK  179  A    between atoms: _439  and  _440
REMARK  180  A    between atoms: _440  and  _441
REMARK  181  A    between atoms: _441  and  _442
REMARK  182  A    between atoms: _451  and  _453
REMARK  183  A    between atoms: _453  and  _454
REMARK  184  A    between atoms: _456  and  _458
REMARK  185  A    between atoms: _458  and  _459
REMARK  186  A    between atoms: _458  and  _461
REMARK  187  A    between atoms: _461  and  _462
REMARK  188  A    between atoms: _467  and  _469
REMARK  189  A    between atoms: _469  and  _470
REMARK  190  A    between atoms: _469  and  _472
REMARK  191  A    between atoms: _472  and  _473
REMARK  192  A    between atoms: _476  and  _478
REMARK  193  A    between atoms: _478  and  _479
REMARK  194  A    between atoms: _478  and  _481
REMARK  195  A    between atoms: _481  and  _482
REMARK  196  A    between atoms: _482  and  _483
REMARK  197  A    between atoms: _485  and  _487
REMARK  198  A    between atoms: _487  and  _488
REMARK  199  A    between atoms: _487  and  _490
REMARK  200  A    between atoms: _490  and  _491
REMARK  201  A    between atoms: _496  and  _497
REMARK  202  A    between atoms: _499  and  _501
REMARK  203  A    between atoms: _501  and  _502
REMARK  204  A    between atoms: _506  and  _507
REMARK  205  A    between atoms: _512  and  _514
REMARK  206  A    between atoms: _514  and  _515
REMARK  207  A    between atoms: _514  and  _517
REMARK  208  A    between atoms: _517  and  _518
REMARK  209  A    between atoms: _521  and  _523
REMARK  210  A    between atoms: _523  and  _524
REMARK  211  A    between atoms: _523  and  _526
REMARK  212  A    between atoms: _526  and  _527
REMARK  213  A    between atoms: _527  and  _528
REMARK  214  A    between atoms: _533  and  _535
REMARK  215  A    between atoms: _535  and  _536
REMARK  216  A    between atoms: _535  and  _538
REMARK  217  A    between atoms: _538  and  _539
REMARK  218  A    between atoms: _542  and  _544
REMARK  219  A    between atoms: _544  and  _545
REMARK  220  A    between atoms: _544  and  _547
REMARK  221  A    between atoms: _547  and  _548
REMARK  222  A    between atoms: _553  and  _554
REMARK  223  A    between atoms: _556  and  _558
REMARK  224  A    between atoms: _558  and  _559
REMARK  225  A    between atoms: _561  and  _563
REMARK  226  A    between atoms: _563  and  _564
REMARK  227  A    between atoms: _563  and  _566
REMARK  228  A    between atoms: _566  and  _567
REMARK  229  A    between atoms: _570  and  _572
REMARK  230  A    between atoms: _572  and  _573
REMARK  231  A    between atoms: _572  and  _575
REMARK  232  A    between atoms: _575  and  _576
REMARK  233  A    between atoms: _581  and  _583
REMARK  234  A    between atoms: _583  and  _584
REMARK  235  A    between atoms: _583  and  _586
REMARK  236  A    between atoms: _586  and  _587
REMARK  237  A    between atoms: _593  and  _595
REMARK  238  A    between atoms: _595  and  _596
REMARK  239  A    between atoms: _599  and  _601
REMARK  240  A    between atoms: _601  and  _602
REMARK  241  A    between atoms: _604  and  _606
REMARK  242  A    between atoms: _606  and  _607
REMARK  243  A    between atoms: _606  and  _609
REMARK  244  A    between atoms: _609  and  _610
REMARK  245  A    between atoms: _615  and  _616
REMARK                            x       y       z     vdW  Elec       q    Type
REMARK                         _______ _______ _______ _____ _____    ______ ____
ROOT
ATOM      1  O   HOH     1     -25.053 -22.218  13.200  0.00  0.00    +0.000 OA
ENDROOT
TORSDOF 0
REMARK  Name = ../refined-set-2016/3fql/3fql_pocket.pdb
REMARK  245 active torsions:
REMARK  status: ('A' for Active; 'I' for Inactive)
REMARK    1  A    between atoms: _1  and  _3
REMARK    2  A    between atoms: _3  and  _4
REMARK    3  A    between atoms: _3  and  _6
REMARK    4  A    between atoms: _6  and  _7
REMARK    5  A    between atoms: _9  and  _11
REMARK    6  A    between atoms: _11  and  _12
REMARK    7  A    between atoms: _11  and  _14
REMARK    8  A    between atoms: _14  and  _15
REMARK    9  A    between atoms: _20  and  _21
REMARK   10  A    between atoms: _23  and  _25
REMARK   11  A    between atoms: _25  and  _26
REMARK   12  A    between atoms: _28  and  _30
REMARK   13  A    between atoms: _30  and  _31
REMARK   14  A    between atoms: _30  and  _33
REMARK   15  A    between atoms: _33  and  _34
REMARK   16  A    between atoms: _40  and  _42
REMARK   17  A    between atoms: _42  and  _43
REMARK   18  A    between atoms: _42  and  _45
REMARK   19  A    between atoms: _45  and  _46
REMARK   20  A    between atoms: _46  and  _47
REMARK   21  A    between atoms: _52  and  _54
REMARK   22  A    between atoms: _54  and  _55
REMARK   23  A    between atoms: _54  and  _57
REMARK   24  A    between atoms: _57  and  _58
REMARK   25  A    between atoms: _63  and  _64
REMARK   26  A    between atoms: _66  and  _68
REMARK   27  A    between atoms: _68  and  _69
REMARK   28  A    between atoms: _68  and  _71
REMARK   29  A    between atoms: _71  and  _72
REMARK   30  A    between atoms: _75  and  _76
REMARK   31  A    between atoms: _81  and  _83
REMARK   32  A    between atoms: _83  and  _84
REMARK   33  A    between atoms: _86  and  _88
REMARK   34  A    between atoms: _88  and  _89
REMARK   35  A    between atoms: _88  and  _91
REMARK   36  A    between atoms: _91  and  _92
REMARK   37  A    between atoms: _92  and  _93
REMARK   38  A    between atoms: _98  and  _100
REMARK   39  A    between atoms: _100  and  _101
REMARK   40  A    between atoms: _100  and  _103
REMARK   41  A    between atoms: _103  and  _104
REMARK   42  A    between atoms: _104  and  _105
REMARK   43  A    between atoms: _105  and  _106
REMARK   44  A    between atoms: _115  and  _117
REMARK   45  A    between atoms: _117  and  _118
REMARK   46  A    between atoms: _117  and  _120
REMARK   47  A    between atoms: _123  and  _125
REMARK   48  A    between atoms: _125  and  _126
REMARK   49  A    between atoms: _125  and  _128
REMARK   50  A    between atoms: _128  and  _129
REMARK   51  A    between atoms: _135  and  _137
REMARK   52  A    between atoms: _137  and  _138
REMARK   53  A    between atoms: _137  and  _140
REMARK   54  A    between atoms: _140  and  _141
REMARK   55  A    between atoms: _144  and  _146
REMARK   56  A    between atoms: _146  and  _147
REMARK   57  A    between atoms: _146  and  _149
REMARK   58  A    between atoms: _149  and  _150
REMARK   59  A    between atoms: _160  and  _162
REMARK   60  A    between atoms: _162  and  _163
REMARK   61  A    between atoms: _165  and  _167
REMARK   62  A    between atoms: _167  and  _168
REMARK   63  A    between atoms: _167  and  _170
REMARK   64  A    between atoms: _170  and  _171
REMARK   65  A    between atoms: _177  and  _179
REMARK   66  A    between atoms: _179  and  _180
REMARK   67  A    between atoms: _183  and  _185
REMARK   68  A    between atoms: _185  and  _186
REMARK   69  A    between atoms: _185  and  _188
REMARK   70  A    between atoms: _188  and  _189
REMARK   71  A    between atoms: _194  and  _195
REMARK   72  A    between atoms: _197  and  _199
REMARK   73  A    between atoms: _199  and  _200
REMARK   74  A    between atoms: _199  and  _202
REMARK   75  A    between atoms: _202  and  _203
REMARK   76  A    between atoms: _203  and  _204
REMARK   77  A    between atoms: _206  and  _208
REMARK   78  A    between atoms: _208  and  _209
REMARK   79  A    between atoms: _208  and  _211
REMARK   80  A    between atoms: _211  and  _212
REMARK   81  A    between atoms: _215  and  _217
REMARK   82  A    between atoms: _217  and  _218
REMARK   83  A    between atoms: _217  and  _220
REMARK   84  A    between atoms: _223  and  _225
REMARK   85  A    between atoms: _225  and  _226
REMARK   86  A    between atoms: _225  and  _228
REMARK   87  A    between atoms: _230  and  _232
REMARK   88  A    between atoms: _232  and  _233
REMARK   89  A    between atoms: _235  and  _237
REMARK   90  A    between atoms: _237  and  _238
REMARK   91  A    between atoms: _237  and  _240
REMARK   92  A    between atoms: _240  and  _241
REMARK   93  A    between atoms: _244  and  _246
REMARK   94  A    between atoms: _246  and  _247
REMARK   95  A    between atoms: _246  and  _249
REMARK   96  A    between atoms: _249  and  _250
REMARK   97  A    between atoms: _253  and  _255
REMARK   98  A    between atoms: _255  and  _256
REMARK   99  A    between atoms: _255  and  _258
REMARK  100  A    between atoms: _258  and  _259
REMARK  101  A    between atoms: _262  and  _264
REMARK  102  A    between atoms: _264  and  _265
REMARK  103  A    between atoms: _264  and  _267
REMARK  104  A    between atoms: _270  and  _272
REMARK  105  A    between atoms: _272  and  _273
REMARK  106  A    between atoms: _272  and  _275
REMARK  107  A    between atoms: _278  and  _280
REMARK  108  A    between atoms: _280  and  _281
REMARK  109  A    between atoms: _280  and  _283
REMARK  110  A    between atoms: _283  and  _284
REMARK  111  A    between atoms: _287  and  _289
REMARK  112  A    between atoms: _289  and  _290
REMARK  113  A    between atoms: _289  and  _292
REMARK  114  A    between atoms: _292  and  _293
REMARK  115  A    between atoms: _293  and  _294
REMARK  116  A    between atoms: _297  and  _299
REMARK  117  A    between atoms: _299  and  _300
REMARK  118  A    between atoms: _299  and  _302
REMARK  119  A    between atoms: _302  and  _303
REMARK  120  A    between atoms: _306  and  _308
REMARK  121  A    between atoms: _308  and  _309
REMARK  122  A    between atoms: _308  and  _311
REMARK  123  A    between atoms: _311  and  _312
REMARK  124  A    between atoms: _315  and  _317
REMARK  125  A    between atoms: _317  and  _318
REMARK  126  A    between atoms: _317  and  _320
REMARK  127  A    between atoms: _320  and  _321
REMARK  128  A    between atoms: _321  and  _322
REMARK  129  A    between atoms: _325  and  _327
REMARK  130  A    between atoms: _327  and  _328
REMARK  131  A    between atoms: _327  and  _330
REMARK  132  A    between atoms: _330  and  _331
REMARK  133  A    between atoms: _334  and  _336
REMARK  134  A    between atoms: _336  and  _337
REMARK  135  A    between atoms: _336  and  _339
REMARK  136  A    between atoms: _339  and  _340
REMARK  137  A    between atoms: _343  and  _345
REMARK  138  A    between atoms: _345  and  _346
REMARK  139  A    between atoms: _345  and  _348
REMARK  140  A    between atoms: _348  and  _349
REMARK  141  A    between atoms: _352  and  _354
REMARK  142  A    between atoms: _354  and  _355
REMARK  143  A    between atoms: _354  and  _357
REMARK  144  A    between atoms: _357  and  _358
REMARK  145  A    between atoms: _360  and  _362
REMARK  146  A    between atoms: _362  and  _363
REMARK  147  A    between atoms: _362  and  _365
REMARK  148  A    between atoms: _367  and  _369
REMARK  149  A    between atoms: _369  and  _370
REMARK  150  A    between atoms: _369  and  _372
REMARK  151  A    between atoms: _372  and  _373
REMARK  152  A    between atoms: _375  and  _377
REMARK  153  A    between atoms: _377  and  _378
REMARK  154  A    between atoms: _377  and  _380
REMARK  155  A    between atoms: _380  and  _381
REMARK  156  A    between atoms: _383  and  _385
REMARK  157  A    between atoms: _385  and  _386
REMARK  158  A    between atoms: _385  and  _388
REMARK  159  A    between atoms: _388  and  _389
REMARK  160  A    between atoms: _394  and  _396
REMARK  161  A    between atoms: _396  and  _397
REMARK  162  A    between atoms: _396  and  _399
REMARK  163  A    between atoms: _402  and  _404
REMARK  164  A    between atoms: _404  and  _405
REMARK  165  A    between atoms: _404  and  _407
REMARK  166  A    between atoms: _407  and  _408
REMARK  167  A    between atoms: _413  and  _414
REMARK  168  A    between atoms: _416  and  _418
REMARK  169  A    between atoms: _418  and  _419
REMARK  170  A    between atoms: _418  and  _421
REMARK  171  A    between atoms: _421  and  _422
REMARK  172  A    between atoms: _425  and  _427
REMARK  173  A    between atoms: _427  and  _428
REMARK  174  A    between atoms: _427  and  _430
REMARK  175  A    between atoms: _430  and  _431
REMARK  176  A    between atoms: _434  and  _436
REMARK  177  A    between atoms: _436  and  _437
REMARK  178  A    between atoms: _436  and  _439
REMARK  179  A    between atoms: _439  and  _440
REMARK  180  A    between atoms: _440  and  _441
REMARK  181  A    between atoms: _441  and  _442
REMARK  182  A    between atoms: _451  and  _453
REMARK  183  A    between atoms: _453  and  _454
REMARK  184  A    between atoms: _456  and  _458
REMARK  185  A    between atoms: _458  and  _459
REMARK  186  A    between atoms: _458  and  _461
REMARK  187  A    between atoms: _461  and  _462
REMARK  188  A    between atoms: _467  and  _469
REMARK  189  A    between atoms: _469  and  _470
REMARK  190  A    between atoms: _469  and  _472
REMARK  191  A    between atoms: _472  and  _473
REMARK  192  A    between atoms: _476  and  _478
REMARK  193  A    between atoms: _478  and  _479
REMARK  194  A    between atoms: _478  and  _481
REMARK  195  A    between atoms: _481  and  _482
REMARK  196  A    between atoms: _482  and  _483
REMARK  197  A    between atoms: _485  and  _487
REMARK  198  A    between atoms: _487  and  _488
REMARK  199  A    between atoms: _487  and  _490
REMARK  200  A    between atoms: _490  and  _491
REMARK  201  A    between atoms: _496  and  _497
REMARK  202  A    between atoms: _499  and  _501
REMARK  203  A    between atoms: _501  and  _502
REMARK  204  A    between atoms: _506  and  _507
REMARK  205  A    between atoms: _512  and  _514
REMARK  206  A    between atoms: _514  and  _515
REMARK  207  A    between atoms: _514  and  _517
REMARK  208  A    between atoms: _517  and  _518
REMARK  209  A    between atoms: _521  and  _523
REMARK  210  A    between atoms: _523  and  _524
REMARK  211  A    between atoms: _523  and  _526
REMARK  212  A    between atoms: _526  and  _527
REMARK  213  A    between atoms: _527  and  _528
REMARK  214  A    between atoms: _533  and  _535
REMARK  215  A    between atoms: _535  and  _536
REMARK  216  A    between atoms: _535  and  _538
REMARK  217  A    between atoms: _538  and  _539
REMARK  218  A    between atoms: _542  and  _544
REMARK  219  A    between atoms: _544  and  _545
REMARK  220  A    between atoms: _544  and  _547
REMARK  221  A    between atoms: _547  and  _548
REMARK  222  A    between atoms: _553  and  _554
REMARK  223  A    between atoms: _556  and  _558
REMARK  224  A    between atoms: _558  and  _559
REMARK  225  A    between atoms: _561  and  _563
REMARK  226  A    between atoms: _563  and  _564
REMARK  227  A    between atoms: _563  and  _566
REMARK  228  A    between atoms: _566  and  _567
REMARK  229  A    between atoms: _570  and  _572
REMARK  230  A    between atoms: _572  and  _573
REMARK  231  A    between atoms: _572  and  _575
REMARK  232  A    between atoms: _575  and  _576
REMARK  233  A    between atoms: _581  and  _583
REMARK  234  A    between atoms: _583  and  _584
REMARK  235  A    between atoms: _583  and  _586
REMARK  236  A    between atoms: _586  and  _587
REMARK  237  A    between atoms: _593  and  _595
REMARK  238  A    between atoms: _595  and  _596
REMARK  239  A    between atoms: _599  and  _601
REMARK  240  A    between atoms: _601  and  _602
REMARK  241  A    between atoms: _604  and  _606
REMARK  242  A    between atoms: _606  and  _607
REMARK  243  A    between atoms: _606  and  _609
REMARK  244  A    between atoms: _609  and  _610
REMARK  245  A    between atoms: _615  and  _616
REMARK                            x       y       z     vdW  Elec       q    Type
REMARK                         _______ _______ _______ _____ _____    ______ ____
ROOT
ATOM      1  O   HOH     1     -22.733  -1.014  11.591  0.00  0.00    +0.000 OA
ENDROOT
TORSDOF 0
REMARK  Name = ../refined-set-2016/3fql/3fql_pocket.pdb
REMARK  245 active torsions:
REMARK  status: ('A' for Active; 'I' for Inactive)
REMARK    1  A    between atoms: _1  and  _3
REMARK    2  A    between atoms: _3  and  _4
REMARK    3  A    between atoms: _3  and  _6
REMARK    4  A    between atoms: _6  and  _7
REMARK    5  A    between atoms: _9  and  _11
REMARK    6  A    between atoms: _11  and  _12
REMARK    7  A    between atoms: _11  and  _14
REMARK    8  A    between atoms: _14  and  _15
REMARK    9  A    between atoms: _20  and  _21
REMARK   10  A    between atoms: _23  and  _25
REMARK   11  A    between atoms: _25  and  _26
REMARK   12  A    between atoms: _28  and  _30
REMARK   13  A    between atoms: _30  and  _31
REMARK   14  A    between atoms: _30  and  _33
REMARK   15  A    between atoms: _33  and  _34
REMARK   16  A    between atoms: _40  and  _42
REMARK   17  A    between atoms: _42  and  _43
REMARK   18  A    between atoms: _42  and  _45
REMARK   19  A    between atoms: _45  and  _46
REMARK   20  A    between atoms: _46  and  _47
REMARK   21  A    between atoms: _52  and  _54
REMARK   22  A    between atoms: _54  and  _55
REMARK   23  A    between atoms: _54  and  _57
REMARK   24  A    between atoms: _57  and  _58
REMARK   25  A    between atoms: _63  and  _64
REMARK   26  A    between atoms: _66  and  _68
REMARK   27  A    between atoms: _68  and  _69
REMARK   28  A    between atoms: _68  and  _71
REMARK   29  A    between atoms: _71  and  _72
REMARK   30  A    between atoms: _75  and  _76
REMARK   31  A    between atoms: _81  and  _83
REMARK   32  A    between atoms: _83  and  _84
REMARK   33  A    between atoms: _86  and  _88
REMARK   34  A    between atoms: _88  and  _89
REMARK   35  A    between atoms: _88  and  _91
REMARK   36  A    between atoms: _91  and  _92
REMARK   37  A    between atoms: _92  and  _93
REMARK   38  A    between atoms: _98  and  _100
REMARK   39  A    between atoms: _100  and  _101
REMARK   40  A    between atoms: _100  and  _103
REMARK   41  A    between atoms: _103  and  _104
REMARK   42  A    between atoms: _104  and  _105
REMARK   43  A    between atoms: _105  and  _106
REMARK   44  A    between atoms: _115  and  _117
REMARK   45  A    between atoms: _117  and  _118
REMARK   46  A    between atoms: _117  and  _120
REMARK   47  A    between atoms: _123  and  _125
REMARK   48  A    between atoms: _125  and  _126
REMARK   49  A    between atoms: _125  and  _128
REMARK   50  A    between atoms: _128  and  _129
REMARK   51  A    between atoms: _135  and  _137
REMARK   52  A    between atoms: _137  and  _138
REMARK   53  A    between atoms: _137  and  _140
REMARK   54  A    between atoms: _140  and  _141
REMARK   55  A    between atoms: _144  and  _146
REMARK   56  A    between atoms: _146  and  _147
REMARK   57  A    between atoms: _146  and  _149
REMARK   58  A    between atoms: _149  and  _150
REMARK   59  A    between atoms: _160  and  _162
REMARK   60  A    between atoms: _162  and  _163
REMARK   61  A    between atoms: _165  and  _167
REMARK   62  A    between atoms: _167  and  _168
REMARK   63  A    between atoms: _167  and  _170
REMARK   64  A    between atoms: _170  and  _171
REMARK   65  A    between atoms: _177  and  _179
REMARK   66  A    between atoms: _179  and  _180
REMARK   67  A    between atoms: _183  and  _185
REMARK   68  A    between atoms: _185  and  _186
REMARK   69  A    between atoms: _185  and  _188
REMARK   70  A    between atoms: _188  and  _189
REMARK   71  A    between atoms: _194  and  _195
REMARK   72  A    between atoms: _197  and  _199
REMARK   73  A    between atoms: _199  and  _200
REMARK   74  A    between atoms: _199  and  _202
REMARK   75  A    between atoms: _202  and  _203
REMARK   76  A    between atoms: _203  and  _204
REMARK   77  A    between atoms: _206  and  _208
REMARK   78  A    between atoms: _208  and  _209
REMARK   79  A    between atoms: _208  and  _211
REMARK   80  A    between atoms: _211  and  _212
REMARK   81  A    between atoms: _215  and  _217
REMARK   82  A    between atoms: _217  and  _218
REMARK   83  A    between atoms: _217  and  _220
REMARK   84  A    between atoms: _223  and  _225
REMARK   85  A    between atoms: _225  and  _226
REMARK   86  A    between atoms: _225  and  _228
REMARK   87  A    between atoms: _230  and  _232
REMARK   88  A    between atoms: _232  and  _233
REMARK   89  A    between atoms: _235  and  _237
REMARK   90  A    between atoms: _237  and  _238
REMARK   91  A    between atoms: _237  and  _240
REMARK   92  A    between atoms: _240  and  _241
REMARK   93  A    between atoms: _244  and  _246
REMARK   94  A    between atoms: _246  and  _247
REMARK   95  A    between atoms: _246  and  _249
REMARK   96  A    between atoms: _249  and  _250
REMARK   97  A    between atoms: _253  and  _255
REMARK   98  A    between atoms: _255  and  _256
REMARK   99  A    between atoms: _255  and  _258
REMARK  100  A    between atoms: _258  and  _259
REMARK  101  A    between atoms: _262  and  _264
REMARK  102  A    between atoms: _264  and  _265
REMARK  103  A    between atoms: _264  and  _267
REMARK  104  A    between atoms: _270  and  _272
REMARK  105  A    between atoms: _272  and  _273
REMARK  106  A    between atoms: _272  and  _275
REMARK  107  A    between atoms: _278  and  _280
REMARK  108  A    between atoms: _280  and  _281
REMARK  109  A    between atoms: _280  and  _283
REMARK  110  A    between atoms: _283  and  _284
REMARK  111  A    between atoms: _287  and  _289
REMARK  112  A    between atoms: _289  and  _290
REMARK  113  A    between atoms: _289  and  _292
REMARK  114  A    between atoms: _292  and  _293
REMARK  115  A    between atoms: _293  and  _294
REMARK  116  A    between atoms: _297  and  _299
REMARK  117  A    between atoms: _299  and  _300
REMARK  118  A    between atoms: _299  and  _302
REMARK  119  A    between atoms: _302  and  _303
REMARK  120  A    between atoms: _306  and  _308
REMARK  121  A    between atoms: _308  and  _309
REMARK  122  A    between atoms: _308  and  _311
REMARK  123  A    between atoms: _311  and  _312
REMARK  124  A    between atoms: _315  and  _317
REMARK  125  A    between atoms: _317  and  _318
REMARK  126  A    between atoms: _317  and  _320
REMARK  127  A    between atoms: _320  and  _321
REMARK  128  A    between atoms: _321  and  _322
REMARK  129  A    between atoms: _325  and  _327
REMARK  130  A    between atoms: _327  and  _328
REMARK  131  A    between atoms: _327  and  _330
REMARK  132  A    between atoms: _330  and  _331
REMARK  133  A    between atoms: _334  and  _336
REMARK  134  A    between atoms: _336  and  _337
REMARK  135  A    between atoms: _336  and  _339
REMARK  136  A    between atoms: _339  and  _340
REMARK  137  A    between atoms: _343  and  _345
REMARK  138  A    between atoms: _345  and  _346
REMARK  139  A    between atoms: _345  and  _348
REMARK  140  A    between atoms: _348  and  _349
REMARK  141  A    between atoms: _352  and  _354
REMARK  142  A    between atoms: _354  and  _355
REMARK  143  A    between atoms: _354  and  _357
REMARK  144  A    between atoms: _357  and  _358
REMARK  145  A    between atoms: _360  and  _362
REMARK  146  A    between atoms: _362  and  _363
REMARK  147  A    between atoms: _362  and  _365
REMARK  148  A    between atoms: _367  and  _369
REMARK  149  A    between atoms: _369  and  _370
REMARK  150  A    between atoms: _369  and  _372
REMARK  151  A    between atoms: _372  and  _373
REMARK  152  A    between atoms: _375  and  _377
REMARK  153  A    between atoms: _377  and  _378
REMARK  154  A    between atoms: _377  and  _380
REMARK  155  A    between atoms: _380  and  _381
REMARK  156  A    between atoms: _383  and  _385
REMARK  157  A    between atoms: _385  and  _386
REMARK  158  A    between atoms: _385  and  _388
REMARK  159  A    between atoms: _388  and  _389
REMARK  160  A    between atoms: _394  and  _396
REMARK  161  A    between atoms: _396  and  _397
REMARK  162  A    between atoms: _396  and  _399
REMARK  163  A    between atoms: _402  and  _404
REMARK  164  A    between atoms: _404  and  _405
REMARK  165  A    between atoms: _404  and  _407
REMARK  166  A    between atoms: _407  and  _408
REMARK  167  A    between atoms: _413  and  _414
REMARK  168  A    between atoms: _416  and  _418
REMARK  169  A    between atoms: _418  and  _419
REMARK  170  A    between atoms: _418  and  _421
REMARK  171  A    between atoms: _421  and  _422
REMARK  172  A    between atoms: _425  and  _427
REMARK  173  A    between atoms: _427  and  _428
REMARK  174  A    between atoms: _427  and  _430
REMARK  175  A    between atoms: _430  and  _431
REMARK  176  A    between atoms: _434  and  _436
REMARK  177  A    between atoms: _436  and  _437
REMARK  178  A    between atoms: _436  and  _439
REMARK  179  A    between atoms: _439  and  _440
REMARK  180  A    between atoms: _440  and  _441
REMARK  181  A    between atoms: _441  and  _442
REMARK  182  A    between atoms: _451  and  _453
REMARK  183  A    between atoms: _453  and  _454
REMARK  184  A    between atoms: _456  and  _458
REMARK  185  A    between atoms: _458  and  _459
REMARK  186  A    between atoms: _458  and  _461
REMARK  187  A    between atoms: _461  and  _462
REMARK  188  A    between atoms: _467  and  _469
REMARK  189  A    between atoms: _469  and  _470
REMARK  190  A    between atoms: _469  and  _472
REMARK  191  A    between atoms: _472  and  _473
REMARK  192  A    between atoms: _476  and  _478
REMARK  193  A    between atoms: _478  and  _479
REMARK  194  A    between atoms: _478  and  _481
REMARK  195  A    between atoms: _481  and  _482
REMARK  196  A    between atoms: _482  and  _483
REMARK  197  A    between atoms: _485  and  _487
REMARK  198  A    between atoms: _487  and  _488
REMARK  199  A    between atoms: _487  and  _490
REMARK  200  A    between atoms: _490  and  _491
REMARK  201  A    between atoms: _496  and  _497
REMARK  202  A    between atoms: _499  and  _501
REMARK  203  A    between atoms: _501  and  _502
REMARK  204  A    between atoms: _506  and  _507
REMARK  205  A    between atoms: _512  and  _514
REMARK  206  A    between atoms: _514  and  _515
REMARK  207  A    between atoms: _514  and  _517
REMARK  208  A    between atoms: _517  and  _518
REMARK  209  A    between atoms: _521  and  _523
REMARK  210  A    between atoms: _523  and  _524
REMARK  211  A    between atoms: _523  and  _526
REMARK  212  A    between atoms: _526  and  _527
REMARK  213  A    between atoms: _527  and  _528
REMARK  214  A    between atoms: _533  and  _535
REMARK  215  A    between atoms: _535  and  _536
REMARK  216  A    between atoms: _535  and  _538
REMARK  217  A    between atoms: _538  and  _539
REMARK  218  A    between atoms: _542  and  _544
REMARK  219  A    between atoms: _544  and  _545
REMARK  220  A    between atoms: _544  and  _547
REMARK  221  A    between atoms: _547  and  _548
REMARK  222  A    between atoms: _553  and  _554
REMARK  223  A    between atoms: _556  and  _558
REMARK  224  A    between atoms: _558  and  _559
REMARK  225  A    between atoms: _561  and  _563
REMARK  226  A    between atoms: _563  and  _564
REMARK  227  A    between atoms: _563  and  _566
REMARK  228  A    between atoms: _566  and  _567
REMARK  229  A    between atoms: _570  and  _572
REMARK  230  A    between atoms: _572  and  _573
REMARK  231  A    between atoms: _572  and  _575
REMARK  232  A    between atoms: _575  and  _576
REMARK  233  A    between atoms: _581  and  _583
REMARK  234  A    between atoms: _583  and  _584
REMARK  235  A    between atoms: _583  and  _586
REMARK  236  A    between atoms: _586  and  _587
REMARK  237  A    between atoms: _593  and  _595
REMARK  238  A    between atoms: _595  and  _596
REMARK  239  A    between atoms: _599  and  _601
REMARK  240  A    between atoms: _601  and  _602
REMARK  241  A    between atoms: _604  and  _606
REMARK  242  A    between atoms: _606  and  _607
REMARK  243  A    between atoms: _606  and  _609
REMARK  244  A    between atoms: _609  and  _610
REMARK  245  A    between atoms: _615  and  _616
REMARK                            x       y       z     vdW  Elec       q    Type
REMARK                         _______ _______ _______ _____ _____    ______ ____
ROOT
ATOM      1  O   HOH     1     -15.334  -2.801  13.125  0.00  0.00    +0.000 OA
ENDROOT
TORSDOF 0
REMARK  Name = ../refined-set-2016/3fql/3fql_pocket.pdb
REMARK  245 active torsions:
REMARK  status: ('A' for Active; 'I' for Inactive)
REMARK    1  A    between atoms: _1  and  _3
REMARK    2  A    between atoms: _3  and  _4
REMARK    3  A    between atoms: _3  and  _6
REMARK    4  A    between atoms: _6  and  _7
REMARK    5  A    between atoms: _9  and  _11
REMARK    6  A    between atoms: _11  and  _12
REMARK    7  A    between atoms: _11  and  _14
REMARK    8  A    between atoms: _14  and  _15
REMARK    9  A    between atoms: _20  and  _21
REMARK   10  A    between atoms: _23  and  _25
REMARK   11  A    between atoms: _25  and  _26
REMARK   12  A    between atoms: _28  and  _30
REMARK   13  A    between atoms: _30  and  _31
REMARK   14  A    between atoms: _30  and  _33
REMARK   15  A    between atoms: _33  and  _34
REMARK   16  A    between atoms: _40  and  _42
REMARK   17  A    between atoms: _42  and  _43
REMARK   18  A    between atoms: _42  and  _45
REMARK   19  A    between atoms: _45  and  _46
REMARK   20  A    between atoms: _46  and  _47
REMARK   21  A    between atoms: _52  and  _54
REMARK   22  A    between atoms: _54  and  _55
REMARK   23  A    between atoms: _54  and  _57
REMARK   24  A    between atoms: _57  and  _58
REMARK   25  A    between atoms: _63  and  _64
REMARK   26  A    between atoms: _66  and  _68
REMARK   27  A    between atoms: _68  and  _69
REMARK   28  A    between atoms: _68  and  _71
REMARK   29  A    between atoms: _71  and  _72
REMARK   30  A    between atoms: _75  and  _76
REMARK   31  A    between atoms: _81  and  _83
REMARK   32  A    between atoms: _83  and  _84
REMARK   33  A    between atoms: _86  and  _88
REMARK   34  A    between atoms: _88  and  _89
REMARK   35  A    between atoms: _88  and  _91
REMARK   36  A    between atoms: _91  and  _92
REMARK   37  A    between atoms: _92  and  _93
REMARK   38  A    between atoms: _98  and  _100
REMARK   39  A    between atoms: _100  and  _101
REMARK   40  A    between atoms: _100  and  _103
REMARK   41  A    between atoms: _103  and  _104
REMARK   42  A    between atoms: _104  and  _105
REMARK   43  A    between atoms: _105  and  _106
REMARK   44  A    between atoms: _115  and  _117
REMARK   45  A    between atoms: _117  and  _118
REMARK   46  A    between atoms: _117  and  _120
REMARK   47  A    between atoms: _123  and  _125
REMARK   48  A    between atoms: _125  and  _126
REMARK   49  A    between atoms: _125  and  _128
REMARK   50  A    between atoms: _128  and  _129
REMARK   51  A    between atoms: _135  and  _137
REMARK   52  A    between atoms: _137  and  _138
REMARK   53  A    between atoms: _137  and  _140
REMARK   54  A    between atoms: _140  and  _141
REMARK   55  A    between atoms: _144  and  _146
REMARK   56  A    between atoms: _146  and  _147
REMARK   57  A    between atoms: _146  and  _149
REMARK   58  A    between atoms: _149  and  _150
REMARK   59  A    between atoms: _160  and  _162
REMARK   60  A    between atoms: _162  and  _163
REMARK   61  A    between atoms: _165  and  _167
REMARK   62  A    between atoms: _167  and  _168
REMARK   63  A    between atoms: _167  and  _170
REMARK   64  A    between atoms: _170  and  _171
REMARK   65  A    between atoms: _177  and  _179
REMARK   66  A    between atoms: _179  and  _180
REMARK   67  A    between atoms: _183  and  _185
REMARK   68  A    between atoms: _185  and  _186
REMARK   69  A    between atoms: _185  and  _188
REMARK   70  A    between atoms: _188  and  _189
REMARK   71  A    between atoms: _194  and  _195
REMARK   72  A    between atoms: _197  and  _199
REMARK   73  A    between atoms: _199  and  _200
REMARK   74  A    between atoms: _199  and  _202
REMARK   75  A    between atoms: _202  and  _203
REMARK   76  A    between atoms: _203  and  _204
REMARK   77  A    between atoms: _206  and  _208
REMARK   78  A    between atoms: _208  and  _209
REMARK   79  A    between atoms: _208  and  _211
REMARK   80  A    between atoms: _211  and  _212
REMARK   81  A    between atoms: _215  and  _217
REMARK   82  A    between atoms: _217  and  _218
REMARK   83  A    between atoms: _217  and  _220
REMARK   84  A    between atoms: _223  and  _225
REMARK   85  A    between atoms: _225  and  _226
REMARK   86  A    between atoms: _225  and  _228
REMARK   87  A    between atoms: _230  and  _232
REMARK   88  A    between atoms: _232  and  _233
REMARK   89  A    between atoms: _235  and  _237
REMARK   90  A    between atoms: _237  and  _238
REMARK   91  A    between atoms: _237  and  _240
REMARK   92  A    between atoms: _240  and  _241
REMARK   93  A    between atoms: _244  and  _246
REMARK   94  A    between atoms: _246  and  _247
REMARK   95  A    between atoms: _246  and  _249
REMARK   96  A    between atoms: _249  and  _250
REMARK   97  A    between atoms: _253  and  _255
REMARK   98  A    between atoms: _255  and  _256
REMARK   99  A    between atoms: _255  and  _258
REMARK  100  A    between atoms: _258  and  _259
REMARK  101  A    between atoms: _262  and  _264
REMARK  102  A    between atoms: _264  and  _265
REMARK  103  A    between atoms: _264  and  _267
REMARK  104  A    between atoms: _270  and  _272
REMARK  105  A    between atoms: _272  and  _273
REMARK  106  A    between atoms: _272  and  _275
REMARK  107  A    between atoms: _278  and  _280
REMARK  108  A    between atoms: _280  and  _281
REMARK  109  A    between atoms: _280  and  _283
REMARK  110  A    between atoms: _283  and  _284
REMARK  111  A    between atoms: _287  and  _289
REMARK  112  A    between atoms: _289  and  _290
REMARK  113  A    between atoms: _289  and  _292
REMARK  114  A    between atoms: _292  and  _293
REMARK  115  A    between atoms: _293  and  _294
REMARK  116  A    between atoms: _297  and  _299
REMARK  117  A    between atoms: _299  and  _300
REMARK  118  A    between atoms: _299  and  _302
REMARK  119  A    between atoms: _302  and  _303
REMARK  120  A    between atoms: _306  and  _308
REMARK  121  A    between atoms: _308  and  _309
REMARK  122  A    between atoms: _308  and  _311
REMARK  123  A    between atoms: _311  and  _312
REMARK  124  A    between atoms: _315  and  _317
REMARK  125  A    between atoms: _317  and  _318
REMARK  126  A    between atoms: _317  and  _320
REMARK  127  A    between atoms: _320  and  _321
REMARK  128  A    between atoms: _321  and  _322
REMARK  129  A    between atoms: _325  and  _327
REMARK  130  A    between atoms: _327  and  _328
REMARK  131  A    between atoms: _327  and  _330
REMARK  132  A    between atoms: _330  and  _331
REMARK  133  A    between atoms: _334  and  _336
REMARK  134  A    between atoms: _336  and  _337
REMARK  135  A    between atoms: _336  and  _339
REMARK  136  A    between atoms: _339  and  _340
REMARK  137  A    between atoms: _343  and  _345
REMARK  138  A    between atoms: _345  and  _346
REMARK  139  A    between atoms: _345  and  _348
REMARK  140  A    between atoms: _348  and  _349
REMARK  141  A    between atoms: _352  and  _354
REMARK  142  A    between atoms: _354  and  _355
REMARK  143  A    between atoms: _354  and  _357
REMARK  144  A    between atoms: _357  and  _358
REMARK  145  A    between atoms: _360  and  _362
REMARK  146  A    between atoms: _362  and  _363
REMARK  147  A    between atoms: _362  and  _365
REMARK  148  A    between atoms: _367  and  _369
REMARK  149  A    between atoms: _369  and  _370
REMARK  150  A    between atoms: _369  and  _372
REMARK  151  A    between atoms: _372  and  _373
REMARK  152  A    between atoms: _375  and  _377
REMARK  153  A    between atoms: _377  and  _378
REMARK  154  A    between atoms: _377  and  _380
REMARK  155  A    between atoms: _380  and  _381
REMARK  156  A    between atoms: _383  and  _385
REMARK  157  A    between atoms: _385  and  _386
REMARK  158  A    between atoms: _385  and  _388
REMARK  159  A    between atoms: _388  and  _389
REMARK  160  A    between atoms: _394  and  _396
REMARK  161  A    between atoms: _396  and  _397
REMARK  162  A    between atoms: _396  and  _399
REMARK  163  A    between atoms: _402  and  _404
REMARK  164  A    between atoms: _404  and  _405
REMARK  165  A    between atoms: _404  and  _407
REMARK  166  A    between atoms: _407  and  _408
REMARK  167  A    between atoms: _413  and  _414
REMARK  168  A    between atoms: _416  and  _418
REMARK  169  A    between atoms: _418  and  _419
REMARK  170  A    between atoms: _418  and  _421
REMARK  171  A    between atoms: _421  and  _422
REMARK  172  A    between atoms: _425  and  _427
REMARK  173  A    between atoms: _427  and  _428
REMARK  174  A    between atoms: _427  and  _430
REMARK  175  A    between atoms: _430  and  _431
REMARK  176  A    between atoms: _434  and  _436
REMARK  177  A    between atoms: _436  and  _437
REMARK  178  A    between atoms: _436  and  _439
REMARK  179  A    between atoms: _439  and  _440
REMARK  180  A    between atoms: _440  and  _441
REMARK  181  A    between atoms: _441  and  _442
REMARK  182  A    between atoms: _451  and  _453
REMARK  183  A    between atoms: _453  and  _454
REMARK  184  A    between atoms: _456  and  _458
REMARK  185  A    between atoms: _458  and  _459
REMARK  186  A    between atoms: _458  and  _461
REMARK  187  A    between atoms: _461  and  _462
REMARK  188  A    between atoms: _467  and  _469
REMARK  189  A    between atoms: _469  and  _470
REMARK  190  A    between atoms: _469  and  _472
REMARK  191  A    between atoms: _472  and  _473
REMARK  192  A    between atoms: _476  and  _478
REMARK  193  A    between atoms: _478  and  _479
REMARK  194  A    between atoms: _478  and  _481
REMARK  195  A    between atoms: _481  and  _482
REMARK  196  A    between atoms: _482  and  _483
REMARK  197  A    between atoms: _485  and  _487
REMARK  198  A    between atoms: _487  and  _488
REMARK  199  A    between atoms: _487  and  _490
REMARK  200  A    between atoms: _490  and  _491
REMARK  201  A    between atoms: _496  and  _497
REMARK  202  A    between atoms: _499  and  _501
REMARK  203  A    between atoms: _501  and  _502
REMARK  204  A    between atoms: _506  and  _507
REMARK  205  A    between atoms: _512  and  _514
REMARK  206  A    between atoms: _514  and  _515
REMARK  207  A    between atoms: _514  and  _517
REMARK  208  A    between atoms: _517  and  _518
REMARK  209  A    between atoms: _521  and  _523
REMARK  210  A    between atoms: _523  and  _524
REMARK  211  A    between atoms: _523  and  _526
REMARK  212  A    between atoms: _526  and  _527
REMARK  213  A    between atoms: _527  and  _528
REMARK  214  A    between atoms: _533  and  _535
REMARK  215  A    between atoms: _535  and  _536
REMARK  216  A    between atoms: _535  and  _538
REMARK  217  A    between atoms: _538  and  _539
REMARK  218  A    between atoms: _542  and  _544
REMARK  219  A    between atoms: _544  and  _545
REMARK  220  A    between atoms: _544  and  _547
REMARK  221  A    between atoms: _547  and  _548
REMARK  222  A    between atoms: _553  and  _554
REMARK  223  A    between atoms: _556  and  _558
REMARK  224  A    between atoms: _558  and  _559
REMARK  225  A    between atoms: _561  and  _563
REMARK  226  A    between atoms: _563  and  _564
REMARK  227  A    between atoms: _563  and  _566
REMARK  228  A    between atoms: _566  and  _567
REMARK  229  A    between atoms: _570  and  _572
REMARK  230  A    between atoms: _572  and  _573
REMARK  231  A    between atoms: _572  and  _575
REMARK  232  A    between atoms: _575  and  _576
REMARK  233  A    between atoms: _581  and  _583
REMARK  234  A    between atoms: _583  and  _584
REMARK  235  A    between atoms: _583  and  _586
REMARK  236  A    between atoms: _586  and  _587
REMARK  237  A    between atoms: _593  and  _595
REMARK  238  A    between atoms: _595  and  _596
REMARK  239  A    between atoms: _599  and  _601
REMARK  240  A    between atoms: _601  and  _602
REMARK  241  A    between atoms: _604  and  _606
REMARK  242  A    between atoms: _606  and  _607
REMARK  243  A    between atoms: _606  and  _609
REMARK  244  A    between atoms: _609  and  _610
REMARK  245  A    between atoms: _615  and  _616
REMARK                            x       y       z     vdW  Elec       q    Type
REMARK                         _______ _______ _______ _____ _____    ______ ____
ROOT
ATOM      1  O   HOH     1     -26.343 -12.978   8.157  0.00  0.00    +0.000 OA
ENDROOT
TORSDOF 0
REMARK  Name = ../refined-set-2016/3fql/3fql_pocket.pdb
REMARK  245 active torsions:
REMARK  status: ('A' for Active; 'I' for Inactive)
REMARK    1  A    between atoms: _1  and  _3
REMARK    2  A    between atoms: _3  and  _4
REMARK    3  A    between atoms: _3  and  _6
REMARK    4  A    between atoms: _6  and  _7
REMARK    5  A    between atoms: _9  and  _11
REMARK    6  A    between atoms: _11  and  _12
REMARK    7  A    between atoms: _11  and  _14
REMARK    8  A    between atoms: _14  and  _15
REMARK    9  A    between atoms: _20  and  _21
REMARK   10  A    between atoms: _23  and  _25
REMARK   11  A    between atoms: _25  and  _26
REMARK   12  A    between atoms: _28  and  _30
REMARK   13  A    between atoms: _30  and  _31
REMARK   14  A    between atoms: _30  and  _33
REMARK   15  A    between atoms: _33  and  _34
REMARK   16  A    between atoms: _40  and  _42
REMARK   17  A    between atoms: _42  and  _43
REMARK   18  A    between atoms: _42  and  _45
REMARK   19  A    between atoms: _45  and  _46
REMARK   20  A    between atoms: _46  and  _47
REMARK   21  A    between atoms: _52  and  _54
REMARK   22  A    between atoms: _54  and  _55
REMARK   23  A    between atoms: _54  and  _57
REMARK   24  A    between atoms: _57  and  _58
REMARK   25  A    between atoms: _63  and  _64
REMARK   26  A    between atoms: _66  and  _68
REMARK   27  A    between atoms: _68  and  _69
REMARK   28  A    between atoms: _68  and  _71
REMARK   29  A    between atoms: _71  and  _72
REMARK   30  A    between atoms: _75  and  _76
REMARK   31  A    between atoms: _81  and  _83
REMARK   32  A    between atoms: _83  and  _84
REMARK   33  A    between atoms: _86  and  _88
REMARK   34  A    between atoms: _88  and  _89
REMARK   35  A    between atoms: _88  and  _91
REMARK   36  A    between atoms: _91  and  _92
REMARK   37  A    between atoms: _92  and  _93
REMARK   38  A    between atoms: _98  and  _100
REMARK   39  A    between atoms: _100  and  _101
REMARK   40  A    between atoms: _100  and  _103
REMARK   41  A    between atoms: _103  and  _104
REMARK   42  A    between atoms: _104  and  _105
REMARK   43  A    between atoms: _105  and  _106
REMARK   44  A    between atoms: _115  and  _117
REMARK   45  A    between atoms: _117  and  _118
REMARK   46  A    between atoms: _117  and  _120
REMARK   47  A    between atoms: _123  and  _125
REMARK   48  A    between atoms: _125  and  _126
REMARK   49  A    between atoms: _125  and  _128
REMARK   50  A    between atoms: _128  and  _129
REMARK   51  A    between atoms: _135  and  _137
REMARK   52  A    between atoms: _137  and  _138
REMARK   53  A    between atoms: _137  and  _140
REMARK   54  A    between atoms: _140  and  _141
REMARK   55  A    between atoms: _144  and  _146
REMARK   56  A    between atoms: _146  and  _147
REMARK   57  A    between atoms: _146  and  _149
REMARK   58  A    between atoms: _149  and  _150
REMARK   59  A    between atoms: _160  and  _162
REMARK   60  A    between atoms: _162  and  _163
REMARK   61  A    between atoms: _165  and  _167
REMARK   62  A    between atoms: _167  and  _168
REMARK   63  A    between atoms: _167  and  _170
REMARK   64  A    between atoms: _170  and  _171
REMARK   65  A    between atoms: _177  and  _179
REMARK   66  A    between atoms: _179  and  _180
REMARK   67  A    between atoms: _183  and  _185
REMARK   68  A    between atoms: _185  and  _186
REMARK   69  A    between atoms: _185  and  _188
REMARK   70  A    between atoms: _188  and  _189
REMARK   71  A    between atoms: _194  and  _195
REMARK   72  A    between atoms: _197  and  _199
REMARK   73  A    between atoms: _199  and  _200
REMARK   74  A    between atoms: _199  and  _202
REMARK   75  A    between atoms: _202  and  _203
REMARK   76  A    between atoms: _203  and  _204
REMARK   77  A    between atoms: _206  and  _208
REMARK   78  A    between atoms: _208  and  _209
REMARK   79  A    between atoms: _208  and  _211
REMARK   80  A    between atoms: _211  and  _212
REMARK   81  A    between atoms: _215  and  _217
REMARK   82  A    between atoms: _217  and  _218
REMARK   83  A    between atoms: _217  and  _220
REMARK   84  A    between atoms: _223  and  _225
REMARK   85  A    between atoms: _225  and  _226
REMARK   86  A    between atoms: _225  and  _228
REMARK   87  A    between atoms: _230  and  _232
REMARK   88  A    between atoms: _232  and  _233
REMARK   89  A    between atoms: _235  and  _237
REMARK   90  A    between atoms: _237  and  _238
REMARK   91  A    between atoms: _237  and  _240
REMARK   92  A    between atoms: _240  and  _241
REMARK   93  A    between atoms: _244  and  _246
REMARK   94  A    between atoms: _246  and  _247
REMARK   95  A    between atoms: _246  and  _249
REMARK   96  A    between atoms: _249  and  _250
REMARK   97  A    between atoms: _253  and  _255
REMARK   98  A    between atoms: _255  and  _256
REMARK   99  A    between atoms: _255  and  _258
REMARK  100  A    between atoms: _258  and  _259
REMARK  101  A    between atoms: _262  and  _264
REMARK  102  A    between atoms: _264  and  _265
REMARK  103  A    between atoms: _264  and  _267
REMARK  104  A    between atoms: _270  and  _272
REMARK  105  A    between atoms: _272  and  _273
REMARK  106  A    between atoms: _272  and  _275
REMARK  107  A    between atoms: _278  and  _280
REMARK  108  A    between atoms: _280  and  _281
REMARK  109  A    between atoms: _280  and  _283
REMARK  110  A    between atoms: _283  and  _284
REMARK  111  A    between atoms: _287  and  _289
REMARK  112  A    between atoms: _289  and  _290
REMARK  113  A    between atoms: _289  and  _292
REMARK  114  A    between atoms: _292  and  _293
REMARK  115  A    between atoms: _293  and  _294
REMARK  116  A    between atoms: _297  and  _299
REMARK  117  A    between atoms: _299  and  _300
REMARK  118  A    between atoms: _299  and  _302
REMARK  119  A    between atoms: _302  and  _303
REMARK  120  A    between atoms: _306  and  _308
REMARK  121  A    between atoms: _308  and  _309
REMARK  122  A    between atoms: _308  and  _311
REMARK  123  A    between atoms: _311  and  _312
REMARK  124  A    between atoms: _315  and  _317
REMARK  125  A    between atoms: _317  and  _318
REMARK  126  A    between atoms: _317  and  _320
REMARK  127  A    between atoms: _320  and  _321
REMARK  128  A    between atoms: _321  and  _322
REMARK  129  A    between atoms: _325  and  _327
REMARK  130  A    between atoms: _327  and  _328
REMARK  131  A    between atoms: _327  and  _330
REMARK  132  A    between atoms: _330  and  _331
REMARK  133  A    between atoms: _334  and  _336
REMARK  134  A    between atoms: _336  and  _337
REMARK  135  A    between atoms: _336  and  _339
REMARK  136  A    between atoms: _339  and  _340
REMARK  137  A    between atoms: _343  and  _345
REMARK  138  A    between atoms: _345  and  _346
REMARK  139  A    between atoms: _345  and  _348
REMARK  140  A    between atoms: _348  and  _349
REMARK  141  A    between atoms: _352  and  _354
REMARK  142  A    between atoms: _354  and  _355
REMARK  143  A    between atoms: _354  and  _357
REMARK  144  A    between atoms: _357  and  _358
REMARK  145  A    between atoms: _360  and  _362
REMARK  146  A    between atoms: _362  and  _363
REMARK  147  A    between atoms: _362  and  _365
REMARK  148  A    between atoms: _367  and  _369
REMARK  149  A    between atoms: _369  and  _370
REMARK  150  A    between atoms: _369  and  _372
REMARK  151  A    between atoms: _372  and  _373
REMARK  152  A    between atoms: _375  and  _377
REMARK  153  A    between atoms: _377  and  _378
REMARK  154  A    between atoms: _377  and  _380
REMARK  155  A    between atoms: _380  and  _381
REMARK  156  A    between atoms: _383  and  _385
REMARK  157  A    between atoms: _385  and  _386
REMARK  158  A    between atoms: _385  and  _388
REMARK  159  A    between atoms: _388  and  _389
REMARK  160  A    between atoms: _394  and  _396
REMARK  161  A    between atoms: _396  and  _397
REMARK  162  A    between atoms: _396  and  _399
REMARK  163  A    between atoms: _402  and  _404
REMARK  164  A    between atoms: _404  and  _405
REMARK  165  A    between atoms: _404  and  _407
REMARK  166  A    between atoms: _407  and  _408
REMARK  167  A    between atoms: _413  and  _414
REMARK  168  A    between atoms: _416  and  _418
REMARK  169  A    between atoms: _418  and  _419
REMARK  170  A    between atoms: _418  and  _421
REMARK  171  A    between atoms: _421  and  _422
REMARK  172  A    between atoms: _425  and  _427
REMARK  173  A    between atoms: _427  and  _428
REMARK  174  A    between atoms: _427  and  _430
REMARK  175  A    between atoms: _430  and  _431
REMARK  176  A    between atoms: _434  and  _436
REMARK  177  A    between atoms: _436  and  _437
REMARK  178  A    between atoms: _436  and  _439
REMARK  179  A    between atoms: _439  and  _440
REMARK  180  A    between atoms: _440  and  _441
REMARK  181  A    between atoms: _441  and  _442
REMARK  182  A    between atoms: _451  and  _453
REMARK  183  A    between atoms: _453  and  _454
REMARK  184  A    between atoms: _456  and  _458
REMARK  185  A    between atoms: _458  and  _459
REMARK  186  A    between atoms: _458  and  _461
REMARK  187  A    between atoms: _461  and  _462
REMARK  188  A    between atoms: _467  and  _469
REMARK  189  A    between atoms: _469  and  _470
REMARK  190  A    between atoms: _469  and  _472
REMARK  191  A    between atoms: _472  and  _473
REMARK  192  A    between atoms: _476  and  _478
REMARK  193  A    between atoms: _478  and  _479
REMARK  194  A    between atoms: _478  and  _481
REMARK  195  A    between atoms: _481  and  _482
REMARK  196  A    between atoms: _482  and  _483
REMARK  197  A    between atoms: _485  and  _487
REMARK  198  A    between atoms: _487  and  _488
REMARK  199  A    between atoms: _487  and  _490
REMARK  200  A    between atoms: _490  and  _491
REMARK  201  A    between atoms: _496  and  _497
REMARK  202  A    between atoms: _499  and  _501
REMARK  203  A    between atoms: _501  and  _502
REMARK  204  A    between atoms: _506  and  _507
REMARK  205  A    between atoms: _512  and  _514
REMARK  206  A    between atoms: _514  and  _515
REMARK  207  A    between atoms: _514  and  _517
REMARK  208  A    between atoms: _517  and  _518
REMARK  209  A    between atoms: _521  and  _523
REMARK  210  A    between atoms: _523  and  _524
REMARK  211  A    between atoms: _523  and  _526
REMARK  212  A    between atoms: _526  and  _527
REMARK  213  A    between atoms: _527  and  _528
REMARK  214  A    between atoms: _533  and  _535
REMARK  215  A    between atoms: _535  and  _536
REMARK  216  A    between atoms: _535  and  _538
REMARK  217  A    between atoms: _538  and  _539
REMARK  218  A    between atoms: _542  and  _544
REMARK  219  A    between atoms: _544  and  _545
REMARK  220  A    between atoms: _544  and  _547
REMARK  221  A    between atoms: _547  and  _548
REMARK  222  A    between atoms: _553  and  _554
REMARK  223  A    between atoms: _556  and  _558
REMARK  224  A    between atoms: _558  and  _559
REMARK  225  A    between atoms: _561  and  _563
REMARK  226  A    between atoms: _563  and  _564
REMARK  227  A    between atoms: _563  and  _566
REMARK  228  A    between atoms: _566  and  _567
REMARK  229  A    between atoms: _570  and  _572
REMARK  230  A    between atoms: _572  and  _573
REMARK  231  A    between atoms: _572  and  _575
REMARK  232  A    between atoms: _575  and  _576
REMARK  233  A    between atoms: _581  and  _583
REMARK  234  A    between atoms: _583  and  _584
REMARK  235  A    between atoms: _583  and  _586
REMARK  236  A    between atoms: _586  and  _587
REMARK  237  A    between atoms: _593  and  _595
REMARK  238  A    between atoms: _595  and  _596
REMARK  239  A    between atoms: _599  and  _601
REMARK  240  A    between atoms: _601  and  _602
REMARK  241  A    between atoms: _604  and  _606
REMARK  242  A    between atoms: _606  and  _607
REMARK  243  A    between atoms: _606  and  _609
REMARK  244  A    between atoms: _609  and  _610
REMARK  245  A    between atoms: _615  and  _616
REMARK                            x       y       z     vdW  Elec       q    Type
REMARK                         _______ _______ _______ _____ _____    ______ ____
ROOT
ATOM      1  O   HOH     1     -20.989  -6.440  10.646  0.00  0.00    +0.000 OA
ENDROOT
TORSDOF 0
REMARK  Name = ../refined-set-2016/3fql/3fql_pocket.pdb
REMARK  245 active torsions:
REMARK  status: ('A' for Active; 'I' for Inactive)
REMARK    1  A    between atoms: _1  and  _3
REMARK    2  A    between atoms: _3  and  _4
REMARK    3  A    between atoms: _3  and  _6
REMARK    4  A    between atoms: _6  and  _7
REMARK    5  A    between atoms: _9  and  _11
REMARK    6  A    between atoms: _11  and  _12
REMARK    7  A    between atoms: _11  and  _14
REMARK    8  A    between atoms: _14  and  _15
REMARK    9  A    between atoms: _20  and  _21
REMARK   10  A    between atoms: _23  and  _25
REMARK   11  A    between atoms: _25  and  _26
REMARK   12  A    between atoms: _28  and  _30
REMARK   13  A    between atoms: _30  and  _31
REMARK   14  A    between atoms: _30  and  _33
REMARK   15  A    between atoms: _33  and  _34
REMARK   16  A    between atoms: _40  and  _42
REMARK   17  A    between atoms: _42  and  _43
REMARK   18  A    between atoms: _42  and  _45
REMARK   19  A    between atoms: _45  and  _46
REMARK   20  A    between atoms: _46  and  _47
REMARK   21  A    between atoms: _52  and  _54
REMARK   22  A    between atoms: _54  and  _55
REMARK   23  A    between atoms: _54  and  _57
REMARK   24  A    between atoms: _57  and  _58
REMARK   25  A    between atoms: _63  and  _64
REMARK   26  A    between atoms: _66  and  _68
REMARK   27  A    between atoms: _68  and  _69
REMARK   28  A    between atoms: _68  and  _71
REMARK   29  A    between atoms: _71  and  _72
REMARK   30  A    between atoms: _75  and  _76
REMARK   31  A    between atoms: _81  and  _83
REMARK   32  A    between atoms: _83  and  _84
REMARK   33  A    between atoms: _86  and  _88
REMARK   34  A    between atoms: _88  and  _89
REMARK   35  A    between atoms: _88  and  _91
REMARK   36  A    between atoms: _91  and  _92
REMARK   37  A    between atoms: _92  and  _93
REMARK   38  A    between atoms: _98  and  _100
REMARK   39  A    between atoms: _100  and  _101
REMARK   40  A    between atoms: _100  and  _103
REMARK   41  A    between atoms: _103  and  _104
REMARK   42  A    between atoms: _104  and  _105
REMARK   43  A    between atoms: _105  and  _106
REMARK   44  A    between atoms: _115  and  _117
REMARK   45  A    between atoms: _117  and  _118
REMARK   46  A    between atoms: _117  and  _120
REMARK   47  A    between atoms: _123  and  _125
REMARK   48  A    between atoms: _125  and  _126
REMARK   49  A    between atoms: _125  and  _128
REMARK   50  A    between atoms: _128  and  _129
REMARK   51  A    between atoms: _135  and  _137
REMARK   52  A    between atoms: _137  and  _138
REMARK   53  A    between atoms: _137  and  _140
REMARK   54  A    between atoms: _140  and  _141
REMARK   55  A    between atoms: _144  and  _146
REMARK   56  A    between atoms: _146  and  _147
REMARK   57  A    between atoms: _146  and  _149
REMARK   58  A    between atoms: _149  and  _150
REMARK   59  A    between atoms: _160  and  _162
REMARK   60  A    between atoms: _162  and  _163
REMARK   61  A    between atoms: _165  and  _167
REMARK   62  A    between atoms: _167  and  _168
REMARK   63  A    between atoms: _167  and  _170
REMARK   64  A    between atoms: _170  and  _171
REMARK   65  A    between atoms: _177  and  _179
REMARK   66  A    between atoms: _179  and  _180
REMARK   67  A    between atoms: _183  and  _185
REMARK   68  A    between atoms: _185  and  _186
REMARK   69  A    between atoms: _185  and  _188
REMARK   70  A    between atoms: _188  and  _189
REMARK   71  A    between atoms: _194  and  _195
REMARK   72  A    between atoms: _197  and  _199
REMARK   73  A    between atoms: _199  and  _200
REMARK   74  A    between atoms: _199  and  _202
REMARK   75  A    between atoms: _202  and  _203
REMARK   76  A    between atoms: _203  and  _204
REMARK   77  A    between atoms: _206  and  _208
REMARK   78  A    between atoms: _208  and  _209
REMARK   79  A    between atoms: _208  and  _211
REMARK   80  A    between atoms: _211  and  _212
REMARK   81  A    between atoms: _215  and  _217
REMARK   82  A    between atoms: _217  and  _218
REMARK   83  A    between atoms: _217  and  _220
REMARK   84  A    between atoms: _223  and  _225
REMARK   85  A    between atoms: _225  and  _226
REMARK   86  A    between atoms: _225  and  _228
REMARK   87  A    between atoms: _230  and  _232
REMARK   88  A    between atoms: _232  and  _233
REMARK   89  A    between atoms: _235  and  _237
REMARK   90  A    between atoms: _237  and  _238
REMARK   91  A    between atoms: _237  and  _240
REMARK   92  A    between atoms: _240  and  _241
REMARK   93  A    between atoms: _244  and  _246
REMARK   94  A    between atoms: _246  and  _247
REMARK   95  A    between atoms: _246  and  _249
REMARK   96  A    between atoms: _249  and  _250
REMARK   97  A    between atoms: _253  and  _255
REMARK   98  A    between atoms: _255  and  _256
REMARK   99  A    between atoms: _255  and  _258
REMARK  100  A    between atoms: _258  and  _259
REMARK  101  A    between atoms: _262  and  _264
REMARK  102  A    between atoms: _264  and  _265
REMARK  103  A    between atoms: _264  and  _267
REMARK  104  A    between atoms: _270  and  _272
REMARK  105  A    between atoms: _272  and  _273
REMARK  106  A    between atoms: _272  and  _275
REMARK  107  A    between atoms: _278  and  _280
REMARK  108  A    between atoms: _280  and  _281
REMARK  109  A    between atoms: _280  and  _283
REMARK  110  A    between atoms: _283  and  _284
REMARK  111  A    between atoms: _287  and  _289
REMARK  112  A    between atoms: _289  and  _290
REMARK  113  A    between atoms: _289  and  _292
REMARK  114  A    between atoms: _292  and  _293
REMARK  115  A    between atoms: _293  and  _294
REMARK  116  A    between atoms: _297  and  _299
REMARK  117  A    between atoms: _299  and  _300
REMARK  118  A    between atoms: _299  and  _302
REMARK  119  A    between atoms: _302  and  _303
REMARK  120  A    between atoms: _306  and  _308
REMARK  121  A    between atoms: _308  and  _309
REMARK  122  A    between atoms: _308  and  _311
REMARK  123  A    between atoms: _311  and  _312
REMARK  124  A    between atoms: _315  and  _317
REMARK  125  A    between atoms: _317  and  _318
REMARK  126  A    between atoms: _317  and  _320
REMARK  127  A    between atoms: _320  and  _321
REMARK  128  A    between atoms: _321  and  _322
REMARK  129  A    between atoms: _325  and  _327
REMARK  130  A    between atoms: _327  and  _328
REMARK  131  A    between atoms: _327  and  _330
REMARK  132  A    between atoms: _330  and  _331
REMARK  133  A    between atoms: _334  and  _336
REMARK  134  A    between atoms: _336  and  _337
REMARK  135  A    between atoms: _336  and  _339
REMARK  136  A    between atoms: _339  and  _340
REMARK  137  A    between atoms: _343  and  _345
REMARK  138  A    between atoms: _345  and  _346
REMARK  139  A    between atoms: _345  and  _348
REMARK  140  A    between atoms: _348  and  _349
REMARK  141  A    between atoms: _352  and  _354
REMARK  142  A    between atoms: _354  and  _355
REMARK  143  A    between atoms: _354  and  _357
REMARK  144  A    between atoms: _357  and  _358
REMARK  145  A    between atoms: _360  and  _362
REMARK  146  A    between atoms: _362  and  _363
REMARK  147  A    between atoms: _362  and  _365
REMARK  148  A    between atoms: _367  and  _369
REMARK  149  A    between atoms: _369  and  _370
REMARK  150  A    between atoms: _369  and  _372
REMARK  151  A    between atoms: _372  and  _373
REMARK  152  A    between atoms: _375  and  _377
REMARK  153  A    between atoms: _377  and  _378
REMARK  154  A    between atoms: _377  and  _380
REMARK  155  A    between atoms: _380  and  _381
REMARK  156  A    between atoms: _383  and  _385
REMARK  157  A    between atoms: _385  and  _386
REMARK  158  A    between atoms: _385  and  _388
REMARK  159  A    between atoms: _388  and  _389
REMARK  160  A    between atoms: _394  and  _396
REMARK  161  A    between atoms: _396  and  _397
REMARK  162  A    between atoms: _396  and  _399
REMARK  163  A    between atoms: _402  and  _404
REMARK  164  A    between atoms: _404  and  _405
REMARK  165  A    between atoms: _404  and  _407
REMARK  166  A    between atoms: _407  and  _408
REMARK  167  A    between atoms: _413  and  _414
REMARK  168  A    between atoms: _416  and  _418
REMARK  169  A    between atoms: _418  and  _419
REMARK  170  A    between atoms: _418  and  _421
REMARK  171  A    between atoms: _421  and  _422
REMARK  172  A    between atoms: _425  and  _427
REMARK  173  A    between atoms: _427  and  _428
REMARK  174  A    between atoms: _427  and  _430
REMARK  175  A    between atoms: _430  and  _431
REMARK  176  A    between atoms: _434  and  _436
REMARK  177  A    between atoms: _436  and  _437
REMARK  178  A    between atoms: _436  and  _439
REMARK  179  A    between atoms: _439  and  _440
REMARK  180  A    between atoms: _440  and  _441
REMARK  181  A    between atoms: _441  and  _442
REMARK  182  A    between atoms: _451  and  _453
REMARK  183  A    between atoms: _453  and  _454
REMARK  184  A    between atoms: _456  and  _458
REMARK  185  A    between atoms: _458  and  _459
REMARK  186  A    between atoms: _458  and  _461
REMARK  187  A    between atoms: _461  and  _462
REMARK  188  A    between atoms: _467  and  _469
REMARK  189  A    between atoms: _469  and  _470
REMARK  190  A    between atoms: _469  and  _472
REMARK  191  A    between atoms: _472  and  _473
REMARK  192  A    between atoms: _476  and  _478
REMARK  193  A    between atoms: _478  and  _479
REMARK  194  A    between atoms: _478  and  _481
REMARK  195  A    between atoms: _481  and  _482
REMARK  196  A    between atoms: _482  and  _483
REMARK  197  A    between atoms: _485  and  _487
REMARK  198  A    between atoms: _487  and  _488
REMARK  199  A    between atoms: _487  and  _490
REMARK  200  A    between atoms: _490  and  _491
REMARK  201  A    between atoms: _496  and  _497
REMARK  202  A    between atoms: _499  and  _501
REMARK  203  A    between atoms: _501  and  _502
REMARK  204  A    between atoms: _506  and  _507
REMARK  205  A    between atoms: _512  and  _514
REMARK  206  A    between atoms: _514  and  _515
REMARK  207  A    between atoms: _514  and  _517
REMARK  208  A    between atoms: _517  and  _518
REMARK  209  A    between atoms: _521  and  _523
REMARK  210  A    between atoms: _523  and  _524
REMARK  211  A    between atoms: _523  and  _526
REMARK  212  A    between atoms: _526  and  _527
REMARK  213  A    between atoms: _527  and  _528
REMARK  214  A    between atoms: _533  and  _535
REMARK  215  A    between atoms: _535  and  _536
REMARK  216  A    between atoms: _535  and  _538
REMARK  217  A    between atoms: _538  and  _539
REMARK  218  A    between atoms: _542  and  _544
REMARK  219  A    between atoms: _544  and  _545
REMARK  220  A    between atoms: _544  and  _547
REMARK  221  A    between atoms: _547  and  _548
REMARK  222  A    between atoms: _553  and  _554
REMARK  223  A    between atoms: _556  and  _558
REMARK  224  A    between atoms: _558  and  _559
REMARK  225  A    between atoms: _561  and  _563
REMARK  226  A    between atoms: _563  and  _564
REMARK  227  A    between atoms: _563  and  _566
REMARK  228  A    between atoms: _566  and  _567
REMARK  229  A    between atoms: _570  and  _572
REMARK  230  A    between atoms: _572  and  _573
REMARK  231  A    between atoms: _572  and  _575
REMARK  232  A    between atoms: _575  and  _576
REMARK  233  A    between atoms: _581  and  _583
REMARK  234  A    between atoms: _583  and  _584
REMARK  235  A    between atoms: _583  and  _586
REMARK  236  A    between atoms: _586  and  _587
REMARK  237  A    between atoms: _593  and  _595
REMARK  238  A    between atoms: _595  and  _596
REMARK  239  A    between atoms: _599  and  _601
REMARK  240  A    between atoms: _601  and  _602
REMARK  241  A    between atoms: _604  and  _606
REMARK  242  A    between atoms: _606  and  _607
REMARK  243  A    between atoms: _606  and  _609
REMARK  244  A    between atoms: _609  and  _610
REMARK  245  A    between atoms: _615  and  _616
REMARK                            x       y       z     vdW  Elec       q    Type
REMARK                         _______ _______ _______ _____ _____    ______ ____
ROOT
ATOM      1  O   HOH     1     -24.101  -4.914  14.499  0.00  0.00    +0.000 OA
ENDROOT
TORSDOF 0
REMARK  Name = ../refined-set-2016/3fql/3fql_pocket.pdb
REMARK  245 active torsions:
REMARK  status: ('A' for Active; 'I' for Inactive)
REMARK    1  A    between atoms: _1  and  _3
REMARK    2  A    between atoms: _3  and  _4
REMARK    3  A    between atoms: _3  and  _6
REMARK    4  A    between atoms: _6  and  _7
REMARK    5  A    between atoms: _9  and  _11
REMARK    6  A    between atoms: _11  and  _12
REMARK    7  A    between atoms: _11  and  _14
REMARK    8  A    between atoms: _14  and  _15
REMARK    9  A    between atoms: _20  and  _21
REMARK   10  A    between atoms: _23  and  _25
REMARK   11  A    between atoms: _25  and  _26
REMARK   12  A    between atoms: _28  and  _30
REMARK   13  A    between atoms: _30  and  _31
REMARK   14  A    between atoms: _30  and  _33
REMARK   15  A    between atoms: _33  and  _34
REMARK   16  A    between atoms: _40  and  _42
REMARK   17  A    between atoms: _42  and  _43
REMARK   18  A    between atoms: _42  and  _45
REMARK   19  A    between atoms: _45  and  _46
REMARK   20  A    between atoms: _46  and  _47
REMARK   21  A    between atoms: _52  and  _54
REMARK   22  A    between atoms: _54  and  _55
REMARK   23  A    between atoms: _54  and  _57
REMARK   24  A    between atoms: _57  and  _58
REMARK   25  A    between atoms: _63  and  _64
REMARK   26  A    between atoms: _66  and  _68
REMARK   27  A    between atoms: _68  and  _69
REMARK   28  A    between atoms: _68  and  _71
REMARK   29  A    between atoms: _71  and  _72
REMARK   30  A    between atoms: _75  and  _76
REMARK   31  A    between atoms: _81  and  _83
REMARK   32  A    between atoms: _83  and  _84
REMARK   33  A    between atoms: _86  and  _88
REMARK   34  A    between atoms: _88  and  _89
REMARK   35  A    between atoms: _88  and  _91
REMARK   36  A    between atoms: _91  and  _92
REMARK   37  A    between atoms: _92  and  _93
REMARK   38  A    between atoms: _98  and  _100
REMARK   39  A    between atoms: _100  and  _101
REMARK   40  A    between atoms: _100  and  _103
REMARK   41  A    between atoms: _103  and  _104
REMARK   42  A    between atoms: _104  and  _105
REMARK   43  A    between atoms: _105  and  _106
REMARK   44  A    between atoms: _115  and  _117
REMARK   45  A    between atoms: _117  and  _118
REMARK   46  A    between atoms: _117  and  _120
REMARK   47  A    between atoms: _123  and  _125
REMARK   48  A    between atoms: _125  and  _126
REMARK   49  A    between atoms: _125  and  _128
REMARK   50  A    between atoms: _128  and  _129
REMARK   51  A    between atoms: _135  and  _137
REMARK   52  A    between atoms: _137  and  _138
REMARK   53  A    between atoms: _137  and  _140
REMARK   54  A    between atoms: _140  and  _141
REMARK   55  A    between atoms: _144  and  _146
REMARK   56  A    between atoms: _146  and  _147
REMARK   57  A    between atoms: _146  and  _149
REMARK   58  A    between atoms: _149  and  _150
REMARK   59  A    between atoms: _160  and  _162
REMARK   60  A    between atoms: _162  and  _163
REMARK   61  A    between atoms: _165  and  _167
REMARK   62  A    between atoms: _167  and  _168
REMARK   63  A    between atoms: _167  and  _170
REMARK   64  A    between atoms: _170  and  _171
REMARK   65  A    between atoms: _177  and  _179
REMARK   66  A    between atoms: _179  and  _180
REMARK   67  A    between atoms: _183  and  _185
REMARK   68  A    between atoms: _185  and  _186
REMARK   69  A    between atoms: _185  and  _188
REMARK   70  A    between atoms: _188  and  _189
REMARK   71  A    between atoms: _194  and  _195
REMARK   72  A    between atoms: _197  and  _199
REMARK   73  A    between atoms: _199  and  _200
REMARK   74  A    between atoms: _199  and  _202
REMARK   75  A    between atoms: _202  and  _203
REMARK   76  A    between atoms: _203  and  _204
REMARK   77  A    between atoms: _206  and  _208
REMARK   78  A    between atoms: _208  and  _209
REMARK   79  A    between atoms: _208  and  _211
REMARK   80  A    between atoms: _211  and  _212
REMARK   81  A    between atoms: _215  and  _217
REMARK   82  A    between atoms: _217  and  _218
REMARK   83  A    between atoms: _217  and  _220
REMARK   84  A    between atoms: _223  and  _225
REMARK   85  A    between atoms: _225  and  _226
REMARK   86  A    between atoms: _225  and  _228
REMARK   87  A    between atoms: _230  and  _232
REMARK   88  A    between atoms: _232  and  _233
REMARK   89  A    between atoms: _235  and  _237
REMARK   90  A    between atoms: _237  and  _238
REMARK   91  A    between atoms: _237  and  _240
REMARK   92  A    between atoms: _240  and  _241
REMARK   93  A    between atoms: _244  and  _246
REMARK   94  A    between atoms: _246  and  _247
REMARK   95  A    between atoms: _246  and  _249
REMARK   96  A    between atoms: _249  and  _250
REMARK   97  A    between atoms: _253  and  _255
REMARK   98  A    between atoms: _255  and  _256
REMARK   99  A    between atoms: _255  and  _258
REMARK  100  A    between atoms: _258  and  _259
REMARK  101  A    between atoms: _262  and  _264
REMARK  102  A    between atoms: _264  and  _265
REMARK  103  A    between atoms: _264  and  _267
REMARK  104  A    between atoms: _270  and  _272
REMARK  105  A    between atoms: _272  and  _273
REMARK  106  A    between atoms: _272  and  _275
REMARK  107  A    between atoms: _278  and  _280
REMARK  108  A    between atoms: _280  and  _281
REMARK  109  A    between atoms: _280  and  _283
REMARK  110  A    between atoms: _283  and  _284
REMARK  111  A    between atoms: _287  and  _289
REMARK  112  A    between atoms: _289  and  _290
REMARK  113  A    between atoms: _289  and  _292
REMARK  114  A    between atoms: _292  and  _293
REMARK  115  A    between atoms: _293  and  _294
REMARK  116  A    between atoms: _297  and  _299
REMARK  117  A    between atoms: _299  and  _300
REMARK  118  A    between atoms: _299  and  _302
REMARK  119  A    between atoms: _302  and  _303
REMARK  120  A    between atoms: _306  and  _308
REMARK  121  A    between atoms: _308  and  _309
REMARK  122  A    between atoms: _308  and  _311
REMARK  123  A    between atoms: _311  and  _312
REMARK  124  A    between atoms: _315  and  _317
REMARK  125  A    between atoms: _317  and  _318
REMARK  126  A    between atoms: _317  and  _320
REMARK  127  A    between atoms: _320  and  _321
REMARK  128  A    between atoms: _321  and  _322
REMARK  129  A    between atoms: _325  and  _327
REMARK  130  A    between atoms: _327  and  _328
REMARK  131  A    between atoms: _327  and  _330
REMARK  132  A    between atoms: _330  and  _331
REMARK  133  A    between atoms: _334  and  _336
REMARK  134  A    between atoms: _336  and  _337
REMARK  135  A    between atoms: _336  and  _339
REMARK  136  A    between atoms: _339  and  _340
REMARK  137  A    between atoms: _343  and  _345
REMARK  138  A    between atoms: _345  and  _346
REMARK  139  A    between atoms: _345  and  _348
REMARK  140  A    between atoms: _348  and  _349
REMARK  141  A    between atoms: _352  and  _354
REMARK  142  A    between atoms: _354  and  _355
REMARK  143  A    between atoms: _354  and  _357
REMARK  144  A    between atoms: _357  and  _358
REMARK  145  A    between atoms: _360  and  _362
REMARK  146  A    between atoms: _362  and  _363
REMARK  147  A    between atoms: _362  and  _365
REMARK  148  A    between atoms: _367  and  _369
REMARK  149  A    between atoms: _369  and  _370
REMARK  150  A    between atoms: _369  and  _372
REMARK  151  A    between atoms: _372  and  _373
REMARK  152  A    between atoms: _375  and  _377
REMARK  153  A    between atoms: _377  and  _378
REMARK  154  A    between atoms: _377  and  _380
REMARK  155  A    between atoms: _380  and  _381
REMARK  156  A    between atoms: _383  and  _385
REMARK  157  A    between atoms: _385  and  _386
REMARK  158  A    between atoms: _385  and  _388
REMARK  159  A    between atoms: _388  and  _389
REMARK  160  A    between atoms: _394  and  _396
REMARK  161  A    between atoms: _396  and  _397
REMARK  162  A    between atoms: _396  and  _399
REMARK  163  A    between atoms: _402  and  _404
REMARK  164  A    between atoms: _404  and  _405
REMARK  165  A    between atoms: _404  and  _407
REMARK  166  A    between atoms: _407  and  _408
REMARK  167  A    between atoms: _413  and  _414
REMARK  168  A    between atoms: _416  and  _418
REMARK  169  A    between atoms: _418  and  _419
REMARK  170  A    between atoms: _418  and  _421
REMARK  171  A    between atoms: _421  and  _422
REMARK  172  A    between atoms: _425  and  _427
REMARK  173  A    between atoms: _427  and  _428
REMARK  174  A    between atoms: _427  and  _430
REMARK  175  A    between atoms: _430  and  _431
REMARK  176  A    between atoms: _434  and  _436
REMARK  177  A    between atoms: _436  and  _437
REMARK  178  A    between atoms: _436  and  _439
REMARK  179  A    between atoms: _439  and  _440
REMARK  180  A    between atoms: _440  and  _441
REMARK  181  A    between atoms: _441  and  _442
REMARK  182  A    between atoms: _451  and  _453
REMARK  183  A    between atoms: _453  and  _454
REMARK  184  A    between atoms: _456  and  _458
REMARK  185  A    between atoms: _458  and  _459
REMARK  186  A    between atoms: _458  and  _461
REMARK  187  A    between atoms: _461  and  _462
REMARK  188  A    between atoms: _467  and  _469
REMARK  189  A    between atoms: _469  and  _470
REMARK  190  A    between atoms: _469  and  _472
REMARK  191  A    between atoms: _472  and  _473
REMARK  192  A    between atoms: _476  and  _478
REMARK  193  A    between atoms: _478  and  _479
REMARK  194  A    between atoms: _478  and  _481
REMARK  195  A    between atoms: _481  and  _482
REMARK  196  A    between atoms: _482  and  _483
REMARK  197  A    between atoms: _485  and  _487
REMARK  198  A    between atoms: _487  and  _488
REMARK  199  A    between atoms: _487  and  _490
REMARK  200  A    between atoms: _490  and  _491
REMARK  201  A    between atoms: _496  and  _497
REMARK  202  A    between atoms: _499  and  _501
REMARK  203  A    between atoms: _501  and  _502
REMARK  204  A    between atoms: _506  and  _507
REMARK  205  A    between atoms: _512  and  _514
REMARK  206  A    between atoms: _514  and  _515
REMARK  207  A    between atoms: _514  and  _517
REMARK  208  A    between atoms: _517  and  _518
REMARK  209  A    between atoms: _521  and  _523
REMARK  210  A    between atoms: _523  and  _524
REMARK  211  A    between atoms: _523  and  _526
REMARK  212  A    between atoms: _526  and  _527
REMARK  213  A    between atoms: _527  and  _528
REMARK  214  A    between atoms: _533  and  _535
REMARK  215  A    between atoms: _535  and  _536
REMARK  216  A    between atoms: _535  and  _538
REMARK  217  A    between atoms: _538  and  _539
REMARK  218  A    between atoms: _542  and  _544
REMARK  219  A    between atoms: _544  and  _545
REMARK  220  A    between atoms: _544  and  _547
REMARK  221  A    between atoms: _547  and  _548
REMARK  222  A    between atoms: _553  and  _554
REMARK  223  A    between atoms: _556  and  _558
REMARK  224  A    between atoms: _558  and  _559
REMARK  225  A    between atoms: _561  and  _563
REMARK  226  A    between atoms: _563  and  _564
REMARK  227  A    between atoms: _563  and  _566
REMARK  228  A    between atoms: _566  and  _567
REMARK  229  A    between atoms: _570  and  _572
REMARK  230  A    between atoms: _572  and  _573
REMARK  231  A    between atoms: _572  and  _575
REMARK  232  A    between atoms: _575  and  _576
REMARK  233  A    between atoms: _581  and  _583
REMARK  234  A    between atoms: _583  and  _584
REMARK  235  A    between atoms: _583  and  _586
REMARK  236  A    between atoms: _586  and  _587
REMARK  237  A    between atoms: _593  and  _595
REMARK  238  A    between atoms: _595  and  _596
REMARK  239  A    between atoms: _599  and  _601
REMARK  240  A    between atoms: _601  and  _602
REMARK  241  A    between atoms: _604  and  _606
REMARK  242  A    between atoms: _606  and  _607
REMARK  243  A    between atoms: _606  and  _609
REMARK  244  A    between atoms: _609  and  _610
REMARK  245  A    between atoms: _615  and  _616
REMARK                            x       y       z     vdW  Elec       q    Type
REMARK                         _______ _______ _______ _____ _____    ______ ____
ROOT
ATOM      1  O   HOH     1     -17.848  -0.329  10.567  0.00  0.00    +0.000 OA
ENDROOT
TORSDOF 0
REMARK  Name = ../refined-set-2016/3fql/3fql_pocket.pdb
REMARK  245 active torsions:
REMARK  status: ('A' for Active; 'I' for Inactive)
REMARK    1  A    between atoms: _1  and  _3
REMARK    2  A    between atoms: _3  and  _4
REMARK    3  A    between atoms: _3  and  _6
REMARK    4  A    between atoms: _6  and  _7
REMARK    5  A    between atoms: _9  and  _11
REMARK    6  A    between atoms: _11  and  _12
REMARK    7  A    between atoms: _11  and  _14
REMARK    8  A    between atoms: _14  and  _15
REMARK    9  A    between atoms: _20  and  _21
REMARK   10  A    between atoms: _23  and  _25
REMARK   11  A    between atoms: _25  and  _26
REMARK   12  A    between atoms: _28  and  _30
REMARK   13  A    between atoms: _30  and  _31
REMARK   14  A    between atoms: _30  and  _33
REMARK   15  A    between atoms: _33  and  _34
REMARK   16  A    between atoms: _40  and  _42
REMARK   17  A    between atoms: _42  and  _43
REMARK   18  A    between atoms: _42  and  _45
REMARK   19  A    between atoms: _45  and  _46
REMARK   20  A    between atoms: _46  and  _47
REMARK   21  A    between atoms: _52  and  _54
REMARK   22  A    between atoms: _54  and  _55
REMARK   23  A    between atoms: _54  and  _57
REMARK   24  A    between atoms: _57  and  _58
REMARK   25  A    between atoms: _63  and  _64
REMARK   26  A    between atoms: _66  and  _68
REMARK   27  A    between atoms: _68  and  _69
REMARK   28  A    between atoms: _68  and  _71
REMARK   29  A    between atoms: _71  and  _72
REMARK   30  A    between atoms: _75  and  _76
REMARK   31  A    between atoms: _81  and  _83
REMARK   32  A    between atoms: _83  and  _84
REMARK   33  A    between atoms: _86  and  _88
REMARK   34  A    between atoms: _88  and  _89
REMARK   35  A    between atoms: _88  and  _91
REMARK   36  A    between atoms: _91  and  _92
REMARK   37  A    between atoms: _92  and  _93
REMARK   38  A    between atoms: _98  and  _100
REMARK   39  A    between atoms: _100  and  _101
REMARK   40  A    between atoms: _100  and  _103
REMARK   41  A    between atoms: _103  and  _104
REMARK   42  A    between atoms: _104  and  _105
REMARK   43  A    between atoms: _105  and  _106
REMARK   44  A    between atoms: _115  and  _117
REMARK   45  A    between atoms: _117  and  _118
REMARK   46  A    between atoms: _117  and  _120
REMARK   47  A    between atoms: _123  and  _125
REMARK   48  A    between atoms: _125  and  _126
REMARK   49  A    between atoms: _125  and  _128
REMARK   50  A    between atoms: _128  and  _129
REMARK   51  A    between atoms: _135  and  _137
REMARK   52  A    between atoms: _137  and  _138
REMARK   53  A    between atoms: _137  and  _140
REMARK   54  A    between atoms: _140  and  _141
REMARK   55  A    between atoms: _144  and  _146
REMARK   56  A    between atoms: _146  and  _147
REMARK   57  A    between atoms: _146  and  _149
REMARK   58  A    between atoms: _149  and  _150
REMARK   59  A    between atoms: _160  and  _162
REMARK   60  A    between atoms: _162  and  _163
REMARK   61  A    between atoms: _165  and  _167
REMARK   62  A    between atoms: _167  and  _168
REMARK   63  A    between atoms: _167  and  _170
REMARK   64  A    between atoms: _170  and  _171
REMARK   65  A    between atoms: _177  and  _179
REMARK   66  A    between atoms: _179  and  _180
REMARK   67  A    between atoms: _183  and  _185
REMARK   68  A    between atoms: _185  and  _186
REMARK   69  A    between atoms: _185  and  _188
REMARK   70  A    between atoms: _188  and  _189
REMARK   71  A    between atoms: _194  and  _195
REMARK   72  A    between atoms: _197  and  _199
REMARK   73  A    between atoms: _199  and  _200
REMARK   74  A    between atoms: _199  and  _202
REMARK   75  A    between atoms: _202  and  _203
REMARK   76  A    between atoms: _203  and  _204
REMARK   77  A    between atoms: _206  and  _208
REMARK   78  A    between atoms: _208  and  _209
REMARK   79  A    between atoms: _208  and  _211
REMARK   80  A    between atoms: _211  and  _212
REMARK   81  A    between atoms: _215  and  _217
REMARK   82  A    between atoms: _217  and  _218
REMARK   83  A    between atoms: _217  and  _220
REMARK   84  A    between atoms: _223  and  _225
REMARK   85  A    between atoms: _225  and  _226
REMARK   86  A    between atoms: _225  and  _228
REMARK   87  A    between atoms: _230  and  _232
REMARK   88  A    between atoms: _232  and  _233
REMARK   89  A    between atoms: _235  and  _237
REMARK   90  A    between atoms: _237  and  _238
REMARK   91  A    between atoms: _237  and  _240
REMARK   92  A    between atoms: _240  and  _241
REMARK   93  A    between atoms: _244  and  _246
REMARK   94  A    between atoms: _246  and  _247
REMARK   95  A    between atoms: _246  and  _249
REMARK   96  A    between atoms: _249  and  _250
REMARK   97  A    between atoms: _253  and  _255
REMARK   98  A    between atoms: _255  and  _256
REMARK   99  A    between atoms: _255  and  _258
REMARK  100  A    between atoms: _258  and  _259
REMARK  101  A    between atoms: _262  and  _264
REMARK  102  A    between atoms: _264  and  _265
REMARK  103  A    between atoms: _264  and  _267
REMARK  104  A    between atoms: _270  and  _272
REMARK  105  A    between atoms: _272  and  _273
REMARK  106  A    between atoms: _272  and  _275
REMARK  107  A    between atoms: _278  and  _280
REMARK  108  A    between atoms: _280  and  _281
REMARK  109  A    between atoms: _280  and  _283
REMARK  110  A    between atoms: _283  and  _284
REMARK  111  A    between atoms: _287  and  _289
REMARK  112  A    between atoms: _289  and  _290
REMARK  113  A    between atoms: _289  and  _292
REMARK  114  A    between atoms: _292  and  _293
REMARK  115  A    between atoms: _293  and  _294
REMARK  116  A    between atoms: _297  and  _299
REMARK  117  A    between atoms: _299  and  _300
REMARK  118  A    between atoms: _299  and  _302
REMARK  119  A    between atoms: _302  and  _303
REMARK  120  A    between atoms: _306  and  _308
REMARK  121  A    between atoms: _308  and  _309
REMARK  122  A    between atoms: _308  and  _311
REMARK  123  A    between atoms: _311  and  _312
REMARK  124  A    between atoms: _315  and  _317
REMARK  125  A    between atoms: _317  and  _318
REMARK  126  A    between atoms: _317  and  _320
REMARK  127  A    between atoms: _320  and  _321
REMARK  128  A    between atoms: _321  and  _322
REMARK  129  A    between atoms: _325  and  _327
REMARK  130  A    between atoms: _327  and  _328
REMARK  131  A    between atoms: _327  and  _330
REMARK  132  A    between atoms: _330  and  _331
REMARK  133  A    between atoms: _334  and  _336
REMARK  134  A    between atoms: _336  and  _337
REMARK  135  A    between atoms: _336  and  _339
REMARK  136  A    between atoms: _339  and  _340
REMARK  137  A    between atoms: _343  and  _345
REMARK  138  A    between atoms: _345  and  _346
REMARK  139  A    between atoms: _345  and  _348
REMARK  140  A    between atoms: _348  and  _349
REMARK  141  A    between atoms: _352  and  _354
REMARK  142  A    between atoms: _354  and  _355
REMARK  143  A    between atoms: _354  and  _357
REMARK  144  A    between atoms: _357  and  _358
REMARK  145  A    between atoms: _360  and  _362
REMARK  146  A    between atoms: _362  and  _363
REMARK  147  A    between atoms: _362  and  _365
REMARK  148  A    between atoms: _367  and  _369
REMARK  149  A    between atoms: _369  and  _370
REMARK  150  A    between atoms: _369  and  _372
REMARK  151  A    between atoms: _372  and  _373
REMARK  152  A    between atoms: _375  and  _377
REMARK  153  A    between atoms: _377  and  _378
REMARK  154  A    between atoms: _377  and  _380
REMARK  155  A    between atoms: _380  and  _381
REMARK  156  A    between atoms: _383  and  _385
REMARK  157  A    between atoms: _385  and  _386
REMARK  158  A    between atoms: _385  and  _388
REMARK  159  A    between atoms: _388  and  _389
REMARK  160  A    between atoms: _394  and  _396
REMARK  161  A    between atoms: _396  and  _397
REMARK  162  A    between atoms: _396  and  _399
REMARK  163  A    between atoms: _402  and  _404
REMARK  164  A    between atoms: _404  and  _405
REMARK  165  A    between atoms: _404  and  _407
REMARK  166  A    between atoms: _407  and  _408
REMARK  167  A    between atoms: _413  and  _414
REMARK  168  A    between atoms: _416  and  _418
REMARK  169  A    between atoms: _418  and  _419
REMARK  170  A    between atoms: _418  and  _421
REMARK  171  A    between atoms: _421  and  _422
REMARK  172  A    between atoms: _425  and  _427
REMARK  173  A    between atoms: _427  and  _428
REMARK  174  A    between atoms: _427  and  _430
REMARK  175  A    between atoms: _430  and  _431
REMARK  176  A    between atoms: _434  and  _436
REMARK  177  A    between atoms: _436  and  _437
REMARK  178  A    between atoms: _436  and  _439
REMARK  179  A    between atoms: _439  and  _440
REMARK  180  A    between atoms: _440  and  _441
REMARK  181  A    between atoms: _441  and  _442
REMARK  182  A    between atoms: _451  and  _453
REMARK  183  A    between atoms: _453  and  _454
REMARK  184  A    between atoms: _456  and  _458
REMARK  185  A    between atoms: _458  and  _459
REMARK  186  A    between atoms: _458  and  _461
REMARK  187  A    between atoms: _461  and  _462
REMARK  188  A    between atoms: _467  and  _469
REMARK  189  A    between atoms: _469  and  _470
REMARK  190  A    between atoms: _469  and  _472
REMARK  191  A    between atoms: _472  and  _473
REMARK  192  A    between atoms: _476  and  _478
REMARK  193  A    between atoms: _478  and  _479
REMARK  194  A    between atoms: _478  and  _481
REMARK  195  A    between atoms: _481  and  _482
REMARK  196  A    between atoms: _482  and  _483
REMARK  197  A    between atoms: _485  and  _487
REMARK  198  A    between atoms: _487  and  _488
REMARK  199  A    between atoms: _487  and  _490
REMARK  200  A    between atoms: _490  and  _491
REMARK  201  A    between atoms: _496  and  _497
REMARK  202  A    between atoms: _499  and  _501
REMARK  203  A    between atoms: _501  and  _502
REMARK  204  A    between atoms: _506  and  _507
REMARK  205  A    between atoms: _512  and  _514
REMARK  206  A    between atoms: _514  and  _515
REMARK  207  A    between atoms: _514  and  _517
REMARK  208  A    between atoms: _517  and  _518
REMARK  209  A    between atoms: _521  and  _523
REMARK  210  A    between atoms: _523  and  _524
REMARK  211  A    between atoms: _523  and  _526
REMARK  212  A    between atoms: _526  and  _527
REMARK  213  A    between atoms: _527  and  _528
REMARK  214  A    between atoms: _533  and  _535
REMARK  215  A    between atoms: _535  and  _536
REMARK  216  A    between atoms: _535  and  _538
REMARK  217  A    between atoms: _538  and  _539
REMARK  218  A    between atoms: _542  and  _544
REMARK  219  A    between atoms: _544  and  _545
REMARK  220  A    between atoms: _544  and  _547
REMARK  221  A    between atoms: _547  and  _548
REMARK  222  A    between atoms: _553  and  _554
REMARK  223  A    between atoms: _556  and  _558
REMARK  224  A    between atoms: _558  and  _559
REMARK  225  A    between atoms: _561  and  _563
REMARK  226  A    between atoms: _563  and  _564
REMARK  227  A    between atoms: _563  and  _566
REMARK  228  A    between atoms: _566  and  _567
REMARK  229  A    between atoms: _570  and  _572
REMARK  230  A    between atoms: _572  and  _573
REMARK  231  A    between atoms: _572  and  _575
REMARK  232  A    between atoms: _575  and  _576
REMARK  233  A    between atoms: _581  and  _583
REMARK  234  A    between atoms: _583  and  _584
REMARK  235  A    between atoms: _583  and  _586
REMARK  236  A    between atoms: _586  and  _587
REMARK  237  A    between atoms: _593  and  _595
REMARK  238  A    between atoms: _595  and  _596
REMARK  239  A    between atoms: _599  and  _601
REMARK  240  A    between atoms: _601  and  _602
REMARK  241  A    between atoms: _604  and  _606
REMARK  242  A    between atoms: _606  and  _607
REMARK  243  A    between atoms: _606  and  _609
REMARK  244  A    between atoms: _609  and  _610
REMARK  245  A    between atoms: _615  and  _616
REMARK                            x       y       z     vdW  Elec       q    Type
REMARK                         _______ _______ _______ _____ _____    ______ ____
ROOT
ATOM      1  O   HOH     1     -12.712  -9.669  19.512  0.00  0.00    +0.000 OA
ENDROOT
TORSDOF 0
REMARK  Name = ../refined-set-2016/3fql/3fql_pocket.pdb
REMARK  245 active torsions:
REMARK  status: ('A' for Active; 'I' for Inactive)
REMARK    1  A    between atoms: _1  and  _3
REMARK    2  A    between atoms: _3  and  _4
REMARK    3  A    between atoms: _3  and  _6
REMARK    4  A    between atoms: _6  and  _7
REMARK    5  A    between atoms: _9  and  _11
REMARK    6  A    between atoms: _11  and  _12
REMARK    7  A    between atoms: _11  and  _14
REMARK    8  A    between atoms: _14  and  _15
REMARK    9  A    between atoms: _20  and  _21
REMARK   10  A    between atoms: _23  and  _25
REMARK   11  A    between atoms: _25  and  _26
REMARK   12  A    between atoms: _28  and  _30
REMARK   13  A    between atoms: _30  and  _31
REMARK   14  A    between atoms: _30  and  _33
REMARK   15  A    between atoms: _33  and  _34
REMARK   16  A    between atoms: _40  and  _42
REMARK   17  A    between atoms: _42  and  _43
REMARK   18  A    between atoms: _42  and  _45
REMARK   19  A    between atoms: _45  and  _46
REMARK   20  A    between atoms: _46  and  _47
REMARK   21  A    between atoms: _52  and  _54
REMARK   22  A    between atoms: _54  and  _55
REMARK   23  A    between atoms: _54  and  _57
REMARK   24  A    between atoms: _57  and  _58
REMARK   25  A    between atoms: _63  and  _64
REMARK   26  A    between atoms: _66  and  _68
REMARK   27  A    between atoms: _68  and  _69
REMARK   28  A    between atoms: _68  and  _71
REMARK   29  A    between atoms: _71  and  _72
REMARK   30  A    between atoms: _75  and  _76
REMARK   31  A    between atoms: _81  and  _83
REMARK   32  A    between atoms: _83  and  _84
REMARK   33  A    between atoms: _86  and  _88
REMARK   34  A    between atoms: _88  and  _89
REMARK   35  A    between atoms: _88  and  _91
REMARK   36  A    between atoms: _91  and  _92
REMARK   37  A    between atoms: _92  and  _93
REMARK   38  A    between atoms: _98  and  _100
REMARK   39  A    between atoms: _100  and  _101
REMARK   40  A    between atoms: _100  and  _103
REMARK   41  A    between atoms: _103  and  _104
REMARK   42  A    between atoms: _104  and  _105
REMARK   43  A    between atoms: _105  and  _106
REMARK   44  A    between atoms: _115  and  _117
REMARK   45  A    between atoms: _117  and  _118
REMARK   46  A    between atoms: _117  and  _120
REMARK   47  A    between atoms: _123  and  _125
REMARK   48  A    between atoms: _125  and  _126
REMARK   49  A    between atoms: _125  and  _128
REMARK   50  A    between atoms: _128  and  _129
REMARK   51  A    between atoms: _135  and  _137
REMARK   52  A    between atoms: _137  and  _138
REMARK   53  A    between atoms: _137  and  _140
REMARK   54  A    between atoms: _140  and  _141
REMARK   55  A    between atoms: _144  and  _146
REMARK   56  A    between atoms: _146  and  _147
REMARK   57  A    between atoms: _146  and  _149
REMARK   58  A    between atoms: _149  and  _150
REMARK   59  A    between atoms: _160  and  _162
REMARK   60  A    between atoms: _162  and  _163
REMARK   61  A    between atoms: _165  and  _167
REMARK   62  A    between atoms: _167  and  _168
REMARK   63  A    between atoms: _167  and  _170
REMARK   64  A    between atoms: _170  and  _171
REMARK   65  A    between atoms: _177  and  _179
REMARK   66  A    between atoms: _179  and  _180
REMARK   67  A    between atoms: _183  and  _185
REMARK   68  A    between atoms: _185  and  _186
REMARK   69  A    between atoms: _185  and  _188
REMARK   70  A    between atoms: _188  and  _189
REMARK   71  A    between atoms: _194  and  _195
REMARK   72  A    between atoms: _197  and  _199
REMARK   73  A    between atoms: _199  and  _200
REMARK   74  A    between atoms: _199  and  _202
REMARK   75  A    between atoms: _202  and  _203
REMARK   76  A    between atoms: _203  and  _204
REMARK   77  A    between atoms: _206  and  _208
REMARK   78  A    between atoms: _208  and  _209
REMARK   79  A    between atoms: _208  and  _211
REMARK   80  A    between atoms: _211  and  _212
REMARK   81  A    between atoms: _215  and  _217
REMARK   82  A    between atoms: _217  and  _218
REMARK   83  A    between atoms: _217  and  _220
REMARK   84  A    between atoms: _223  and  _225
REMARK   85  A    between atoms: _225  and  _226
REMARK   86  A    between atoms: _225  and  _228
REMARK   87  A    between atoms: _230  and  _232
REMARK   88  A    between atoms: _232  and  _233
REMARK   89  A    between atoms: _235  and  _237
REMARK   90  A    between atoms: _237  and  _238
REMARK   91  A    between atoms: _237  and  _240
REMARK   92  A    between atoms: _240  and  _241
REMARK   93  A    between atoms: _244  and  _246
REMARK   94  A    between atoms: _246  and  _247
REMARK   95  A    between atoms: _246  and  _249
REMARK   96  A    between atoms: _249  and  _250
REMARK   97  A    between atoms: _253  and  _255
REMARK   98  A    between atoms: _255  and  _256
REMARK   99  A    between atoms: _255  and  _258
REMARK  100  A    between atoms: _258  and  _259
REMARK  101  A    between atoms: _262  and  _264
REMARK  102  A    between atoms: _264  and  _265
REMARK  103  A    between atoms: _264  and  _267
REMARK  104  A    between atoms: _270  and  _272
REMARK  105  A    between atoms: _272  and  _273
REMARK  106  A    between atoms: _272  and  _275
REMARK  107  A    between atoms: _278  and  _280
REMARK  108  A    between atoms: _280  and  _281
REMARK  109  A    between atoms: _280  and  _283
REMARK  110  A    between atoms: _283  and  _284
REMARK  111  A    between atoms: _287  and  _289
REMARK  112  A    between atoms: _289  and  _290
REMARK  113  A    between atoms: _289  and  _292
REMARK  114  A    between atoms: _292  and  _293
REMARK  115  A    between atoms: _293  and  _294
REMARK  116  A    between atoms: _297  and  _299
REMARK  117  A    between atoms: _299  and  _300
REMARK  118  A    between atoms: _299  and  _302
REMARK  119  A    between atoms: _302  and  _303
REMARK  120  A    between atoms: _306  and  _308
REMARK  121  A    between atoms: _308  and  _309
REMARK  122  A    between atoms: _308  and  _311
REMARK  123  A    between atoms: _311  and  _312
REMARK  124  A    between atoms: _315  and  _317
REMARK  125  A    between atoms: _317  and  _318
REMARK  126  A    between atoms: _317  and  _320
REMARK  127  A    between atoms: _320  and  _321
REMARK  128  A    between atoms: _321  and  _322
REMARK  129  A    between atoms: _325  and  _327
REMARK  130  A    between atoms: _327  and  _328
REMARK  131  A    between atoms: _327  and  _330
REMARK  132  A    between atoms: _330  and  _331
REMARK  133  A    between atoms: _334  and  _336
REMARK  134  A    between atoms: _336  and  _337
REMARK  135  A    between atoms: _336  and  _339
REMARK  136  A    between atoms: _339  and  _340
REMARK  137  A    between atoms: _343  and  _345
REMARK  138  A    between atoms: _345  and  _346
REMARK  139  A    between atoms: _345  and  _348
REMARK  140  A    between atoms: _348  and  _349
REMARK  141  A    between atoms: _352  and  _354
REMARK  142  A    between atoms: _354  and  _355
REMARK  143  A    between atoms: _354  and  _357
REMARK  144  A    between atoms: _357  and  _358
REMARK  145  A    between atoms: _360  and  _362
REMARK  146  A    between atoms: _362  and  _363
REMARK  147  A    between atoms: _362  and  _365
REMARK  148  A    between atoms: _367  and  _369
REMARK  149  A    between atoms: _369  and  _370
REMARK  150  A    between atoms: _369  and  _372
REMARK  151  A    between atoms: _372  and  _373
REMARK  152  A    between atoms: _375  and  _377
REMARK  153  A    between atoms: _377  and  _378
REMARK  154  A    between atoms: _377  and  _380
REMARK  155  A    between atoms: _380  and  _381
REMARK  156  A    between atoms: _383  and  _385
REMARK  157  A    between atoms: _385  and  _386
REMARK  158  A    between atoms: _385  and  _388
REMARK  159  A    between atoms: _388  and  _389
REMARK  160  A    between atoms: _394  and  _396
REMARK  161  A    between atoms: _396  and  _397
REMARK  162  A    between atoms: _396  and  _399
REMARK  163  A    between atoms: _402  and  _404
REMARK  164  A    between atoms: _404  and  _405
REMARK  165  A    between atoms: _404  and  _407
REMARK  166  A    between atoms: _407  and  _408
REMARK  167  A    between atoms: _413  and  _414
REMARK  168  A    between atoms: _416  and  _418
REMARK  169  A    between atoms: _418  and  _419
REMARK  170  A    between atoms: _418  and  _421
REMARK  171  A    between atoms: _421  and  _422
REMARK  172  A    between atoms: _425  and  _427
REMARK  173  A    between atoms: _427  and  _428
REMARK  174  A    between atoms: _427  and  _430
REMARK  175  A    between atoms: _430  and  _431
REMARK  176  A    between atoms: _434  and  _436
REMARK  177  A    between atoms: _436  and  _437
REMARK  178  A    between atoms: _436  and  _439
REMARK  179  A    between atoms: _439  and  _440
REMARK  180  A    between atoms: _440  and  _441
REMARK  181  A    between atoms: _441  and  _442
REMARK  182  A    between atoms: _451  and  _453
REMARK  183  A    between atoms: _453  and  _454
REMARK  184  A    between atoms: _456  and  _458
REMARK  185  A    between atoms: _458  and  _459
REMARK  186  A    between atoms: _458  and  _461
REMARK  187  A    between atoms: _461  and  _462
REMARK  188  A    between atoms: _467  and  _469
REMARK  189  A    between atoms: _469  and  _470
REMARK  190  A    between atoms: _469  and  _472
REMARK  191  A    between atoms: _472  and  _473
REMARK  192  A    between atoms: _476  and  _478
REMARK  193  A    between atoms: _478  and  _479
REMARK  194  A    between atoms: _478  and  _481
REMARK  195  A    between atoms: _481  and  _482
REMARK  196  A    between atoms: _482  and  _483
REMARK  197  A    between atoms: _485  and  _487
REMARK  198  A    between atoms: _487  and  _488
REMARK  199  A    between atoms: _487  and  _490
REMARK  200  A    between atoms: _490  and  _491
REMARK  201  A    between atoms: _496  and  _497
REMARK  202  A    between atoms: _499  and  _501
REMARK  203  A    between atoms: _501  and  _502
REMARK  204  A    between atoms: _506  and  _507
REMARK  205  A    between atoms: _512  and  _514
REMARK  206  A    between atoms: _514  and  _515
REMARK  207  A    between atoms: _514  and  _517
REMARK  208  A    between atoms: _517  and  _518
REMARK  209  A    between atoms: _521  and  _523
REMARK  210  A    between atoms: _523  and  _524
REMARK  211  A    between atoms: _523  and  _526
REMARK  212  A    between atoms: _526  and  _527
REMARK  213  A    between atoms: _527  and  _528
REMARK  214  A    between atoms: _533  and  _535
REMARK  215  A    between atoms: _535  and  _536
REMARK  216  A    between atoms: _535  and  _538
REMARK  217  A    between atoms: _538  and  _539
REMARK  218  A    between atoms: _542  and  _544
REMARK  219  A    between atoms: _544  and  _545
REMARK  220  A    between atoms: _544  and  _547
REMARK  221  A    between atoms: _547  and  _548
REMARK  222  A    between atoms: _553  and  _554
REMARK  223  A    between atoms: _556  and  _558
REMARK  224  A    between atoms: _558  and  _559
REMARK  225  A    between atoms: _561  and  _563
REMARK  226  A    between atoms: _563  and  _564
REMARK  227  A    between atoms: _563  and  _566
REMARK  228  A    between atoms: _566  and  _567
REMARK  229  A    between atoms: _570  and  _572
REMARK  230  A    between atoms: _572  and  _573
REMARK  231  A    between atoms: _572  and  _575
REMARK  232  A    between atoms: _575  and  _576
REMARK  233  A    between atoms: _581  and  _583
REMARK  234  A    between atoms: _583  and  _584
REMARK  235  A    between atoms: _583  and  _586
REMARK  236  A    between atoms: _586  and  _587
REMARK  237  A    between atoms: _593  and  _595
REMARK  238  A    between atoms: _595  and  _596
REMARK  239  A    between atoms: _599  and  _601
REMARK  240  A    between atoms: _601  and  _602
REMARK  241  A    between atoms: _604  and  _606
REMARK  242  A    between atoms: _606  and  _607
REMARK  243  A    between atoms: _606  and  _609
REMARK  244  A    between atoms: _609  and  _610
REMARK  245  A    between atoms: _615  and  _616
REMARK                            x       y       z     vdW  Elec       q    Type
REMARK                         _______ _______ _______ _____ _____    ______ ____
ROOT
ATOM      1  O   HOH     1     -21.440 -14.511  15.898  0.00  0.00    +0.000 OA
ENDROOT
TORSDOF 0
REMARK  Name = ../refined-set-2016/3fql/3fql_pocket.pdb
REMARK  245 active torsions:
REMARK  status: ('A' for Active; 'I' for Inactive)
REMARK    1  A    between atoms: _1  and  _3
REMARK    2  A    between atoms: _3  and  _4
REMARK    3  A    between atoms: _3  and  _6
REMARK    4  A    between atoms: _6  and  _7
REMARK    5  A    between atoms: _9  and  _11
REMARK    6  A    between atoms: _11  and  _12
REMARK    7  A    between atoms: _11  and  _14
REMARK    8  A    between atoms: _14  and  _15
REMARK    9  A    between atoms: _20  and  _21
REMARK   10  A    between atoms: _23  and  _25
REMARK   11  A    between atoms: _25  and  _26
REMARK   12  A    between atoms: _28  and  _30
REMARK   13  A    between atoms: _30  and  _31
REMARK   14  A    between atoms: _30  and  _33
REMARK   15  A    between atoms: _33  and  _34
REMARK   16  A    between atoms: _40  and  _42
REMARK   17  A    between atoms: _42  and  _43
REMARK   18  A    between atoms: _42  and  _45
REMARK   19  A    between atoms: _45  and  _46
REMARK   20  A    between atoms: _46  and  _47
REMARK   21  A    between atoms: _52  and  _54
REMARK   22  A    between atoms: _54  and  _55
REMARK   23  A    between atoms: _54  and  _57
REMARK   24  A    between atoms: _57  and  _58
REMARK   25  A    between atoms: _63  and  _64
REMARK   26  A    between atoms: _66  and  _68
REMARK   27  A    between atoms: _68  and  _69
REMARK   28  A    between atoms: _68  and  _71
REMARK   29  A    between atoms: _71  and  _72
REMARK   30  A    between atoms: _75  and  _76
REMARK   31  A    between atoms: _81  and  _83
REMARK   32  A    between atoms: _83  and  _84
REMARK   33  A    between atoms: _86  and  _88
REMARK   34  A    between atoms: _88  and  _89
REMARK   35  A    between atoms: _88  and  _91
REMARK   36  A    between atoms: _91  and  _92
REMARK   37  A    between atoms: _92  and  _93
REMARK   38  A    between atoms: _98  and  _100
REMARK   39  A    between atoms: _100  and  _101
REMARK   40  A    between atoms: _100  and  _103
REMARK   41  A    between atoms: _103  and  _104
REMARK   42  A    between atoms: _104  and  _105
REMARK   43  A    between atoms: _105  and  _106
REMARK   44  A    between atoms: _115  and  _117
REMARK   45  A    between atoms: _117  and  _118
REMARK   46  A    between atoms: _117  and  _120
REMARK   47  A    between atoms: _123  and  _125
REMARK   48  A    between atoms: _125  and  _126
REMARK   49  A    between atoms: _125  and  _128
REMARK   50  A    between atoms: _128  and  _129
REMARK   51  A    between atoms: _135  and  _137
REMARK   52  A    between atoms: _137  and  _138
REMARK   53  A    between atoms: _137  and  _140
REMARK   54  A    between atoms: _140  and  _141
REMARK   55  A    between atoms: _144  and  _146
REMARK   56  A    between atoms: _146  and  _147
REMARK   57  A    between atoms: _146  and  _149
REMARK   58  A    between atoms: _149  and  _150
REMARK   59  A    between atoms: _160  and  _162
REMARK   60  A    between atoms: _162  and  _163
REMARK   61  A    between atoms: _165  and  _167
REMARK   62  A    between atoms: _167  and  _168
REMARK   63  A    between atoms: _167  and  _170
REMARK   64  A    between atoms: _170  and  _171
REMARK   65  A    between atoms: _177  and  _179
REMARK   66  A    between atoms: _179  and  _180
REMARK   67  A    between atoms: _183  and  _185
REMARK   68  A    between atoms: _185  and  _186
REMARK   69  A    between atoms: _185  and  _188
REMARK   70  A    between atoms: _188  and  _189
REMARK   71  A    between atoms: _194  and  _195
REMARK   72  A    between atoms: _197  and  _199
REMARK   73  A    between atoms: _199  and  _200
REMARK   74  A    between atoms: _199  and  _202
REMARK   75  A    between atoms: _202  and  _203
REMARK   76  A    between atoms: _203  and  _204
REMARK   77  A    between atoms: _206  and  _208
REMARK   78  A    between atoms: _208  and  _209
REMARK   79  A    between atoms: _208  and  _211
REMARK   80  A    between atoms: _211  and  _212
REMARK   81  A    between atoms: _215  and  _217
REMARK   82  A    between atoms: _217  and  _218
REMARK   83  A    between atoms: _217  and  _220
REMARK   84  A    between atoms: _223  and  _225
REMARK   85  A    between atoms: _225  and  _226
REMARK   86  A    between atoms: _225  and  _228
REMARK   87  A    between atoms: _230  and  _232
REMARK   88  A    between atoms: _232  and  _233
REMARK   89  A    between atoms: _235  and  _237
REMARK   90  A    between atoms: _237  and  _238
REMARK   91  A    between atoms: _237  and  _240
REMARK   92  A    between atoms: _240  and  _241
REMARK   93  A    between atoms: _244  and  _246
REMARK   94  A    between atoms: _246  and  _247
REMARK   95  A    between atoms: _246  and  _249
REMARK   96  A    between atoms: _249  and  _250
REMARK   97  A    between atoms: _253  and  _255
REMARK   98  A    between atoms: _255  and  _256
REMARK   99  A    between atoms: _255  and  _258
REMARK  100  A    between atoms: _258  and  _259
REMARK  101  A    between atoms: _262  and  _264
REMARK  102  A    between atoms: _264  and  _265
REMARK  103  A    between atoms: _264  and  _267
REMARK  104  A    between atoms: _270  and  _272
REMARK  105  A    between atoms: _272  and  _273
REMARK  106  A    between atoms: _272  and  _275
REMARK  107  A    between atoms: _278  and  _280
REMARK  108  A    between atoms: _280  and  _281
REMARK  109  A    between atoms: _280  and  _283
REMARK  110  A    between atoms: _283  and  _284
REMARK  111  A    between atoms: _287  and  _289
REMARK  112  A    between atoms: _289  and  _290
REMARK  113  A    between atoms: _289  and  _292
REMARK  114  A    between atoms: _292  and  _293
REMARK  115  A    between atoms: _293  and  _294
REMARK  116  A    between atoms: _297  and  _299
REMARK  117  A    between atoms: _299  and  _300
REMARK  118  A    between atoms: _299  and  _302
REMARK  119  A    between atoms: _302  and  _303
REMARK  120  A    between atoms: _306  and  _308
REMARK  121  A    between atoms: _308  and  _309
REMARK  122  A    between atoms: _308  and  _311
REMARK  123  A    between atoms: _311  and  _312
REMARK  124  A    between atoms: _315  and  _317
REMARK  125  A    between atoms: _317  and  _318
REMARK  126  A    between atoms: _317  and  _320
REMARK  127  A    between atoms: _320  and  _321
REMARK  128  A    between atoms: _321  and  _322
REMARK  129  A    between atoms: _325  and  _327
REMARK  130  A    between atoms: _327  and  _328
REMARK  131  A    between atoms: _327  and  _330
REMARK  132  A    between atoms: _330  and  _331
REMARK  133  A    between atoms: _334  and  _336
REMARK  134  A    between atoms: _336  and  _337
REMARK  135  A    between atoms: _336  and  _339
REMARK  136  A    between atoms: _339  and  _340
REMARK  137  A    between atoms: _343  and  _345
REMARK  138  A    between atoms: _345  and  _346
REMARK  139  A    between atoms: _345  and  _348
REMARK  140  A    between atoms: _348  and  _349
REMARK  141  A    between atoms: _352  and  _354
REMARK  142  A    between atoms: _354  and  _355
REMARK  143  A    between atoms: _354  and  _357
REMARK  144  A    between atoms: _357  and  _358
REMARK  145  A    between atoms: _360  and  _362
REMARK  146  A    between atoms: _362  and  _363
REMARK  147  A    between atoms: _362  and  _365
REMARK  148  A    between atoms: _367  and  _369
REMARK  149  A    between atoms: _369  and  _370
REMARK  150  A    between atoms: _369  and  _372
REMARK  151  A    between atoms: _372  and  _373
REMARK  152  A    between atoms: _375  and  _377
REMARK  153  A    between atoms: _377  and  _378
REMARK  154  A    between atoms: _377  and  _380
REMARK  155  A    between atoms: _380  and  _381
REMARK  156  A    between atoms: _383  and  _385
REMARK  157  A    between atoms: _385  and  _386
REMARK  158  A    between atoms: _385  and  _388
REMARK  159  A    between atoms: _388  and  _389
REMARK  160  A    between atoms: _394  and  _396
REMARK  161  A    between atoms: _396  and  _397
REMARK  162  A    between atoms: _396  and  _399
REMARK  163  A    between atoms: _402  and  _404
REMARK  164  A    between atoms: _404  and  _405
REMARK  165  A    between atoms: _404  and  _407
REMARK  166  A    between atoms: _407  and  _408
REMARK  167  A    between atoms: _413  and  _414
REMARK  168  A    between atoms: _416  and  _418
REMARK  169  A    between atoms: _418  and  _419
REMARK  170  A    between atoms: _418  and  _421
REMARK  171  A    between atoms: _421  and  _422
REMARK  172  A    between atoms: _425  and  _427
REMARK  173  A    between atoms: _427  and  _428
REMARK  174  A    between atoms: _427  and  _430
REMARK  175  A    between atoms: _430  and  _431
REMARK  176  A    between atoms: _434  and  _436
REMARK  177  A    between atoms: _436  and  _437
REMARK  178  A    between atoms: _436  and  _439
REMARK  179  A    between atoms: _439  and  _440
REMARK  180  A    between atoms: _440  and  _441
REMARK  181  A    between atoms: _441  and  _442
REMARK  182  A    between atoms: _451  and  _453
REMARK  183  A    between atoms: _453  and  _454
REMARK  184  A    between atoms: _456  and  _458
REMARK  185  A    between atoms: _458  and  _459
REMARK  186  A    between atoms: _458  and  _461
REMARK  187  A    between atoms: _461  and  _462
REMARK  188  A    between atoms: _467  and  _469
REMARK  189  A    between atoms: _469  and  _470
REMARK  190  A    between atoms: _469  and  _472
REMARK  191  A    between atoms: _472  and  _473
REMARK  192  A    between atoms: _476  and  _478
REMARK  193  A    between atoms: _478  and  _479
REMARK  194  A    between atoms: _478  and  _481
REMARK  195  A    between atoms: _481  and  _482
REMARK  196  A    between atoms: _482  and  _483
REMARK  197  A    between atoms: _485  and  _487
REMARK  198  A    between atoms: _487  and  _488
REMARK  199  A    between atoms: _487  and  _490
REMARK  200  A    between atoms: _490  and  _491
REMARK  201  A    between atoms: _496  and  _497
REMARK  202  A    between atoms: _499  and  _501
REMARK  203  A    between atoms: _501  and  _502
REMARK  204  A    between atoms: _506  and  _507
REMARK  205  A    between atoms: _512  and  _514
REMARK  206  A    between atoms: _514  and  _515
REMARK  207  A    between atoms: _514  and  _517
REMARK  208  A    between atoms: _517  and  _518
REMARK  209  A    between atoms: _521  and  _523
REMARK  210  A    between atoms: _523  and  _524
REMARK  211  A    between atoms: _523  and  _526
REMARK  212  A    between atoms: _526  and  _527
REMARK  213  A    between atoms: _527  and  _528
REMARK  214  A    between atoms: _533  and  _535
REMARK  215  A    between atoms: _535  and  _536
REMARK  216  A    between atoms: _535  and  _538
REMARK  217  A    between atoms: _538  and  _539
REMARK  218  A    between atoms: _542  and  _544
REMARK  219  A    between atoms: _544  and  _545
REMARK  220  A    between atoms: _544  and  _547
REMARK  221  A    between atoms: _547  and  _548
REMARK  222  A    between atoms: _553  and  _554
REMARK  223  A    between atoms: _556  and  _558
REMARK  224  A    between atoms: _558  and  _559
REMARK  225  A    between atoms: _561  and  _563
REMARK  226  A    between atoms: _563  and  _564
REMARK  227  A    between atoms: _563  and  _566
REMARK  228  A    between atoms: _566  and  _567
REMARK  229  A    between atoms: _570  and  _572
REMARK  230  A    between atoms: _572  and  _573
REMARK  231  A    between atoms: _572  and  _575
REMARK  232  A    between atoms: _575  and  _576
REMARK  233  A    between atoms: _581  and  _583
REMARK  234  A    between atoms: _583  and  _584
REMARK  235  A    between atoms: _583  and  _586
REMARK  236  A    between atoms: _586  and  _587
REMARK  237  A    between atoms: _593  and  _595
REMARK  238  A    between atoms: _595  and  _596
REMARK  239  A    between atoms: _599  and  _601
REMARK  240  A    between atoms: _601  and  _602
REMARK  241  A    between atoms: _604  and  _606
REMARK  242  A    between atoms: _606  and  _607
REMARK  243  A    between atoms: _606  and  _609
REMARK  244  A    between atoms: _609  and  _610
REMARK  245  A    between atoms: _615  and  _616
REMARK                            x       y       z     vdW  Elec       q    Type
REMARK                         _______ _______ _______ _____ _____    ______ ____
ROOT
ATOM      1  O   HOH     1     -19.724 -17.202  15.615  0.00  0.00    +0.000 OA
ENDROOT
TORSDOF 0
REMARK  Name = ../refined-set-2016/3fql/3fql_pocket.pdb
REMARK  245 active torsions:
REMARK  status: ('A' for Active; 'I' for Inactive)
REMARK    1  A    between atoms: _1  and  _3
REMARK    2  A    between atoms: _3  and  _4
REMARK    3  A    between atoms: _3  and  _6
REMARK    4  A    between atoms: _6  and  _7
REMARK    5  A    between atoms: _9  and  _11
REMARK    6  A    between atoms: _11  and  _12
REMARK    7  A    between atoms: _11  and  _14
REMARK    8  A    between atoms: _14  and  _15
REMARK    9  A    between atoms: _20  and  _21
REMARK   10  A    between atoms: _23  and  _25
REMARK   11  A    between atoms: _25  and  _26
REMARK   12  A    between atoms: _28  and  _30
REMARK   13  A    between atoms: _30  and  _31
REMARK   14  A    between atoms: _30  and  _33
REMARK   15  A    between atoms: _33  and  _34
REMARK   16  A    between atoms: _40  and  _42
REMARK   17  A    between atoms: _42  and  _43
REMARK   18  A    between atoms: _42  and  _45
REMARK   19  A    between atoms: _45  and  _46
REMARK   20  A    between atoms: _46  and  _47
REMARK   21  A    between atoms: _52  and  _54
REMARK   22  A    between atoms: _54  and  _55
REMARK   23  A    between atoms: _54  and  _57
REMARK   24  A    between atoms: _57  and  _58
REMARK   25  A    between atoms: _63  and  _64
REMARK   26  A    between atoms: _66  and  _68
REMARK   27  A    between atoms: _68  and  _69
REMARK   28  A    between atoms: _68  and  _71
REMARK   29  A    between atoms: _71  and  _72
REMARK   30  A    between atoms: _75  and  _76
REMARK   31  A    between atoms: _81  and  _83
REMARK   32  A    between atoms: _83  and  _84
REMARK   33  A    between atoms: _86  and  _88
REMARK   34  A    between atoms: _88  and  _89
REMARK   35  A    between atoms: _88  and  _91
REMARK   36  A    between atoms: _91  and  _92
REMARK   37  A    between atoms: _92  and  _93
REMARK   38  A    between atoms: _98  and  _100
REMARK   39  A    between atoms: _100  and  _101
REMARK   40  A    between atoms: _100  and  _103
REMARK   41  A    between atoms: _103  and  _104
REMARK   42  A    between atoms: _104  and  _105
REMARK   43  A    between atoms: _105  and  _106
REMARK   44  A    between atoms: _115  and  _117
REMARK   45  A    between atoms: _117  and  _118
REMARK   46  A    between atoms: _117  and  _120
REMARK   47  A    between atoms: _123  and  _125
REMARK   48  A    between atoms: _125  and  _126
REMARK   49  A    between atoms: _125  and  _128
REMARK   50  A    between atoms: _128  and  _129
REMARK   51  A    between atoms: _135  and  _137
REMARK   52  A    between atoms: _137  and  _138
REMARK   53  A    between atoms: _137  and  _140
REMARK   54  A    between atoms: _140  and  _141
REMARK   55  A    between atoms: _144  and  _146
REMARK   56  A    between atoms: _146  and  _147
REMARK   57  A    between atoms: _146  and  _149
REMARK   58  A    between atoms: _149  and  _150
REMARK   59  A    between atoms: _160  and  _162
REMARK   60  A    between atoms: _162  and  _163
REMARK   61  A    between atoms: _165  and  _167
REMARK   62  A    between atoms: _167  and  _168
REMARK   63  A    between atoms: _167  and  _170
REMARK   64  A    between atoms: _170  and  _171
REMARK   65  A    between atoms: _177  and  _179
REMARK   66  A    between atoms: _179  and  _180
REMARK   67  A    between atoms: _183  and  _185
REMARK   68  A    between atoms: _185  and  _186
REMARK   69  A    between atoms: _185  and  _188
REMARK   70  A    between atoms: _188  and  _189
REMARK   71  A    between atoms: _194  and  _195
REMARK   72  A    between atoms: _197  and  _199
REMARK   73  A    between atoms: _199  and  _200
REMARK   74  A    between atoms: _199  and  _202
REMARK   75  A    between atoms: _202  and  _203
REMARK   76  A    between atoms: _203  and  _204
REMARK   77  A    between atoms: _206  and  _208
REMARK   78  A    between atoms: _208  and  _209
REMARK   79  A    between atoms: _208  and  _211
REMARK   80  A    between atoms: _211  and  _212
REMARK   81  A    between atoms: _215  and  _217
REMARK   82  A    between atoms: _217  and  _218
REMARK   83  A    between atoms: _217  and  _220
REMARK   84  A    between atoms: _223  and  _225
REMARK   85  A    between atoms: _225  and  _226
REMARK   86  A    between atoms: _225  and  _228
REMARK   87  A    between atoms: _230  and  _232
REMARK   88  A    between atoms: _232  and  _233
REMARK   89  A    between atoms: _235  and  _237
REMARK   90  A    between atoms: _237  and  _238
REMARK   91  A    between atoms: _237  and  _240
REMARK   92  A    between atoms: _240  and  _241
REMARK   93  A    between atoms: _244  and  _246
REMARK   94  A    between atoms: _246  and  _247
REMARK   95  A    between atoms: _246  and  _249
REMARK   96  A    between atoms: _249  and  _250
REMARK   97  A    between atoms: _253  and  _255
REMARK   98  A    between atoms: _255  and  _256
REMARK   99  A    between atoms: _255  and  _258
REMARK  100  A    between atoms: _258  and  _259
REMARK  101  A    between atoms: _262  and  _264
REMARK  102  A    between atoms: _264  and  _265
REMARK  103  A    between atoms: _264  and  _267
REMARK  104  A    between atoms: _270  and  _272
REMARK  105  A    between atoms: _272  and  _273
REMARK  106  A    between atoms: _272  and  _275
REMARK  107  A    between atoms: _278  and  _280
REMARK  108  A    between atoms: _280  and  _281
REMARK  109  A    between atoms: _280  and  _283
REMARK  110  A    between atoms: _283  and  _284
REMARK  111  A    between atoms: _287  and  _289
REMARK  112  A    between atoms: _289  and  _290
REMARK  113  A    between atoms: _289  and  _292
REMARK  114  A    between atoms: _292  and  _293
REMARK  115  A    between atoms: _293  and  _294
REMARK  116  A    between atoms: _297  and  _299
REMARK  117  A    between atoms: _299  and  _300
REMARK  118  A    between atoms: _299  and  _302
REMARK  119  A    between atoms: _302  and  _303
REMARK  120  A    between atoms: _306  and  _308
REMARK  121  A    between atoms: _308  and  _309
REMARK  122  A    between atoms: _308  and  _311
REMARK  123  A    between atoms: _311  and  _312
REMARK  124  A    between atoms: _315  and  _317
REMARK  125  A    between atoms: _317  and  _318
REMARK  126  A    between atoms: _317  and  _320
REMARK  127  A    between atoms: _320  and  _321
REMARK  128  A    between atoms: _321  and  _322
REMARK  129  A    between atoms: _325  and  _327
REMARK  130  A    between atoms: _327  and  _328
REMARK  131  A    between atoms: _327  and  _330
REMARK  132  A    between atoms: _330  and  _331
REMARK  133  A    between atoms: _334  and  _336
REMARK  134  A    between atoms: _336  and  _337
REMARK  135  A    between atoms: _336  and  _339
REMARK  136  A    between atoms: _339  and  _340
REMARK  137  A    between atoms: _343  and  _345
REMARK  138  A    between atoms: _345  and  _346
REMARK  139  A    between atoms: _345  and  _348
REMARK  140  A    between atoms: _348  and  _349
REMARK  141  A    between atoms: _352  and  _354
REMARK  142  A    between atoms: _354  and  _355
REMARK  143  A    between atoms: _354  and  _357
REMARK  144  A    between atoms: _357  and  _358
REMARK  145  A    between atoms: _360  and  _362
REMARK  146  A    between atoms: _362  and  _363
REMARK  147  A    between atoms: _362  and  _365
REMARK  148  A    between atoms: _367  and  _369
REMARK  149  A    between atoms: _369  and  _370
REMARK  150  A    between atoms: _369  and  _372
REMARK  151  A    between atoms: _372  and  _373
REMARK  152  A    between atoms: _375  and  _377
REMARK  153  A    between atoms: _377  and  _378
REMARK  154  A    between atoms: _377  and  _380
REMARK  155  A    between atoms: _380  and  _381
REMARK  156  A    between atoms: _383  and  _385
REMARK  157  A    between atoms: _385  and  _386
REMARK  158  A    between atoms: _385  and  _388
REMARK  159  A    between atoms: _388  and  _389
REMARK  160  A    between atoms: _394  and  _396
REMARK  161  A    between atoms: _396  and  _397
REMARK  162  A    between atoms: _396  and  _399
REMARK  163  A    between atoms: _402  and  _404
REMARK  164  A    between atoms: _404  and  _405
REMARK  165  A    between atoms: _404  and  _407
REMARK  166  A    between atoms: _407  and  _408
REMARK  167  A    between atoms: _413  and  _414
REMARK  168  A    between atoms: _416  and  _418
REMARK  169  A    between atoms: _418  and  _419
REMARK  170  A    between atoms: _418  and  _421
REMARK  171  A    between atoms: _421  and  _422
REMARK  172  A    between atoms: _425  and  _427
REMARK  173  A    between atoms: _427  and  _428
REMARK  174  A    between atoms: _427  and  _430
REMARK  175  A    between atoms: _430  and  _431
REMARK  176  A    between atoms: _434  and  _436
REMARK  177  A    between atoms: _436  and  _437
REMARK  178  A    between atoms: _436  and  _439
REMARK  179  A    between atoms: _439  and  _440
REMARK  180  A    between atoms: _440  and  _441
REMARK  181  A    between atoms: _441  and  _442
REMARK  182  A    between atoms: _451  and  _453
REMARK  183  A    between atoms: _453  and  _454
REMARK  184  A    between atoms: _456  and  _458
REMARK  185  A    between atoms: _458  and  _459
REMARK  186  A    between atoms: _458  and  _461
REMARK  187  A    between atoms: _461  and  _462
REMARK  188  A    between atoms: _467  and  _469
REMARK  189  A    between atoms: _469  and  _470
REMARK  190  A    between atoms: _469  and  _472
REMARK  191  A    between atoms: _472  and  _473
REMARK  192  A    between atoms: _476  and  _478
REMARK  193  A    between atoms: _478  and  _479
REMARK  194  A    between atoms: _478  and  _481
REMARK  195  A    between atoms: _481  and  _482
REMARK  196  A    between atoms: _482  and  _483
REMARK  197  A    between atoms: _485  and  _487
REMARK  198  A    between atoms: _487  and  _488
REMARK  199  A    between atoms: _487  and  _490
REMARK  200  A    between atoms: _490  and  _491
REMARK  201  A    between atoms: _496  and  _497
REMARK  202  A    between atoms: _499  and  _501
REMARK  203  A    between atoms: _501  and  _502
REMARK  204  A    between atoms: _506  and  _507
REMARK  205  A    between atoms: _512  and  _514
REMARK  206  A    between atoms: _514  and  _515
REMARK  207  A    between atoms: _514  and  _517
REMARK  208  A    between atoms: _517  and  _518
REMARK  209  A    between atoms: _521  and  _523
REMARK  210  A    between atoms: _523  and  _524
REMARK  211  A    between atoms: _523  and  _526
REMARK  212  A    between atoms: _526  and  _527
REMARK  213  A    between atoms: _527  and  _528
REMARK  214  A    between atoms: _533  and  _535
REMARK  215  A    between atoms: _535  and  _536
REMARK  216  A    between atoms: _535  and  _538
REMARK  217  A    between atoms: _538  and  _539
REMARK  218  A    between atoms: _542  and  _544
REMARK  219  A    between atoms: _544  and  _545
REMARK  220  A    between atoms: _544  and  _547
REMARK  221  A    between atoms: _547  and  _548
REMARK  222  A    between atoms: _553  and  _554
REMARK  223  A    between atoms: _556  and  _558
REMARK  224  A    between atoms: _558  and  _559
REMARK  225  A    between atoms: _561  and  _563
REMARK  226  A    between atoms: _563  and  _564
REMARK  227  A    between atoms: _563  and  _566
REMARK  228  A    between atoms: _566  and  _567
REMARK  229  A    between atoms: _570  and  _572
REMARK  230  A    between atoms: _572  and  _573
REMARK  231  A    between atoms: _572  and  _575
REMARK  232  A    between atoms: _575  and  _576
REMARK  233  A    between atoms: _581  and  _583
REMARK  234  A    between atoms: _583  and  _584
REMARK  235  A    between atoms: _583  and  _586
REMARK  236  A    between atoms: _586  and  _587
REMARK  237  A    between atoms: _593  and  _595
REMARK  238  A    between atoms: _595  and  _596
REMARK  239  A    between atoms: _599  and  _601
REMARK  240  A    between atoms: _601  and  _602
REMARK  241  A    between atoms: _604  and  _606
REMARK  242  A    between atoms: _606  and  _607
REMARK  243  A    between atoms: _606  and  _609
REMARK  244  A    between atoms: _609  and  _610
REMARK  245  A    between atoms: _615  and  _616
REMARK                            x       y       z     vdW  Elec       q    Type
REMARK                         _______ _______ _______ _____ _____    ______ ____
ROOT
ATOM      1  O   HOH     1     -21.418 -16.547  17.663  0.00  0.00    +0.000 OA
ENDROOT
TORSDOF 0
REMARK  Name = ../refined-set-2016/3fql/3fql_pocket.pdb
REMARK  245 active torsions:
REMARK  status: ('A' for Active; 'I' for Inactive)
REMARK    1  A    between atoms: _1  and  _3
REMARK    2  A    between atoms: _3  and  _4
REMARK    3  A    between atoms: _3  and  _6
REMARK    4  A    between atoms: _6  and  _7
REMARK    5  A    between atoms: _9  and  _11
REMARK    6  A    between atoms: _11  and  _12
REMARK    7  A    between atoms: _11  and  _14
REMARK    8  A    between atoms: _14  and  _15
REMARK    9  A    between atoms: _20  and  _21
REMARK   10  A    between atoms: _23  and  _25
REMARK   11  A    between atoms: _25  and  _26
REMARK   12  A    between atoms: _28  and  _30
REMARK   13  A    between atoms: _30  and  _31
REMARK   14  A    between atoms: _30  and  _33
REMARK   15  A    between atoms: _33  and  _34
REMARK   16  A    between atoms: _40  and  _42
REMARK   17  A    between atoms: _42  and  _43
REMARK   18  A    between atoms: _42  and  _45
REMARK   19  A    between atoms: _45  and  _46
REMARK   20  A    between atoms: _46  and  _47
REMARK   21  A    between atoms: _52  and  _54
REMARK   22  A    between atoms: _54  and  _55
REMARK   23  A    between atoms: _54  and  _57
REMARK   24  A    between atoms: _57  and  _58
REMARK   25  A    between atoms: _63  and  _64
REMARK   26  A    between atoms: _66  and  _68
REMARK   27  A    between atoms: _68  and  _69
REMARK   28  A    between atoms: _68  and  _71
REMARK   29  A    between atoms: _71  and  _72
REMARK   30  A    between atoms: _75  and  _76
REMARK   31  A    between atoms: _81  and  _83
REMARK   32  A    between atoms: _83  and  _84
REMARK   33  A    between atoms: _86  and  _88
REMARK   34  A    between atoms: _88  and  _89
REMARK   35  A    between atoms: _88  and  _91
REMARK   36  A    between atoms: _91  and  _92
REMARK   37  A    between atoms: _92  and  _93
REMARK   38  A    between atoms: _98  and  _100
REMARK   39  A    between atoms: _100  and  _101
REMARK   40  A    between atoms: _100  and  _103
REMARK   41  A    between atoms: _103  and  _104
REMARK   42  A    between atoms: _104  and  _105
REMARK   43  A    between atoms: _105  and  _106
REMARK   44  A    between atoms: _115  and  _117
REMARK   45  A    between atoms: _117  and  _118
REMARK   46  A    between atoms: _117  and  _120
REMARK   47  A    between atoms: _123  and  _125
REMARK   48  A    between atoms: _125  and  _126
REMARK   49  A    between atoms: _125  and  _128
REMARK   50  A    between atoms: _128  and  _129
REMARK   51  A    between atoms: _135  and  _137
REMARK   52  A    between atoms: _137  and  _138
REMARK   53  A    between atoms: _137  and  _140
REMARK   54  A    between atoms: _140  and  _141
REMARK   55  A    between atoms: _144  and  _146
REMARK   56  A    between atoms: _146  and  _147
REMARK   57  A    between atoms: _146  and  _149
REMARK   58  A    between atoms: _149  and  _150
REMARK   59  A    between atoms: _160  and  _162
REMARK   60  A    between atoms: _162  and  _163
REMARK   61  A    between atoms: _165  and  _167
REMARK   62  A    between atoms: _167  and  _168
REMARK   63  A    between atoms: _167  and  _170
REMARK   64  A    between atoms: _170  and  _171
REMARK   65  A    between atoms: _177  and  _179
REMARK   66  A    between atoms: _179  and  _180
REMARK   67  A    between atoms: _183  and  _185
REMARK   68  A    between atoms: _185  and  _186
REMARK   69  A    between atoms: _185  and  _188
REMARK   70  A    between atoms: _188  and  _189
REMARK   71  A    between atoms: _194  and  _195
REMARK   72  A    between atoms: _197  and  _199
REMARK   73  A    between atoms: _199  and  _200
REMARK   74  A    between atoms: _199  and  _202
REMARK   75  A    between atoms: _202  and  _203
REMARK   76  A    between atoms: _203  and  _204
REMARK   77  A    between atoms: _206  and  _208
REMARK   78  A    between atoms: _208  and  _209
REMARK   79  A    between atoms: _208  and  _211
REMARK   80  A    between atoms: _211  and  _212
REMARK   81  A    between atoms: _215  and  _217
REMARK   82  A    between atoms: _217  and  _218
REMARK   83  A    between atoms: _217  and  _220
REMARK   84  A    between atoms: _223  and  _225
REMARK   85  A    between atoms: _225  and  _226
REMARK   86  A    between atoms: _225  and  _228
REMARK   87  A    between atoms: _230  and  _232
REMARK   88  A    between atoms: _232  and  _233
REMARK   89  A    between atoms: _235  and  _237
REMARK   90  A    between atoms: _237  and  _238
REMARK   91  A    between atoms: _237  and  _240
REMARK   92  A    between atoms: _240  and  _241
REMARK   93  A    between atoms: _244  and  _246
REMARK   94  A    between atoms: _246  and  _247
REMARK   95  A    between atoms: _246  and  _249
REMARK   96  A    between atoms: _249  and  _250
REMARK   97  A    between atoms: _253  and  _255
REMARK   98  A    between atoms: _255  and  _256
REMARK   99  A    between atoms: _255  and  _258
REMARK  100  A    between atoms: _258  and  _259
REMARK  101  A    between atoms: _262  and  _264
REMARK  102  A    between atoms: _264  and  _265
REMARK  103  A    between atoms: _264  and  _267
REMARK  104  A    between atoms: _270  and  _272
REMARK  105  A    between atoms: _272  and  _273
REMARK  106  A    between atoms: _272  and  _275
REMARK  107  A    between atoms: _278  and  _280
REMARK  108  A    between atoms: _280  and  _281
REMARK  109  A    between atoms: _280  and  _283
REMARK  110  A    between atoms: _283  and  _284
REMARK  111  A    between atoms: _287  and  _289
REMARK  112  A    between atoms: _289  and  _290
REMARK  113  A    between atoms: _289  and  _292
REMARK  114  A    between atoms: _292  and  _293
REMARK  115  A    between atoms: _293  and  _294
REMARK  116  A    between atoms: _297  and  _299
REMARK  117  A    between atoms: _299  and  _300
REMARK  118  A    between atoms: _299  and  _302
REMARK  119  A    between atoms: _302  and  _303
REMARK  120  A    between atoms: _306  and  _308
REMARK  121  A    between atoms: _308  and  _309
REMARK  122  A    between atoms: _308  and  _311
REMARK  123  A    between atoms: _311  and  _312
REMARK  124  A    between atoms: _315  and  _317
REMARK  125  A    between atoms: _317  and  _318
REMARK  126  A    between atoms: _317  and  _320
REMARK  127  A    between atoms: _320  and  _321
REMARK  128  A    between atoms: _321  and  _322
REMARK  129  A    between atoms: _325  and  _327
REMARK  130  A    between atoms: _327  and  _328
REMARK  131  A    between atoms: _327  and  _330
REMARK  132  A    between atoms: _330  and  _331
REMARK  133  A    between atoms: _334  and  _336
REMARK  134  A    between atoms: _336  and  _337
REMARK  135  A    between atoms: _336  and  _339
REMARK  136  A    between atoms: _339  and  _340
REMARK  137  A    between atoms: _343  and  _345
REMARK  138  A    between atoms: _345  and  _346
REMARK  139  A    between atoms: _345  and  _348
REMARK  140  A    between atoms: _348  and  _349
REMARK  141  A    between atoms: _352  and  _354
REMARK  142  A    between atoms: _354  and  _355
REMARK  143  A    between atoms: _354  and  _357
REMARK  144  A    between atoms: _357  and  _358
REMARK  145  A    between atoms: _360  and  _362
REMARK  146  A    between atoms: _362  and  _363
REMARK  147  A    between atoms: _362  and  _365
REMARK  148  A    between atoms: _367  and  _369
REMARK  149  A    between atoms: _369  and  _370
REMARK  150  A    between atoms: _369  and  _372
REMARK  151  A    between atoms: _372  and  _373
REMARK  152  A    between atoms: _375  and  _377
REMARK  153  A    between atoms: _377  and  _378
REMARK  154  A    between atoms: _377  and  _380
REMARK  155  A    between atoms: _380  and  _381
REMARK  156  A    between atoms: _383  and  _385
REMARK  157  A    between atoms: _385  and  _386
REMARK  158  A    between atoms: _385  and  _388
REMARK  159  A    between atoms: _388  and  _389
REMARK  160  A    between atoms: _394  and  _396
REMARK  161  A    between atoms: _396  and  _397
REMARK  162  A    between atoms: _396  and  _399
REMARK  163  A    between atoms: _402  and  _404
REMARK  164  A    between atoms: _404  and  _405
REMARK  165  A    between atoms: _404  and  _407
REMARK  166  A    between atoms: _407  and  _408
REMARK  167  A    between atoms: _413  and  _414
REMARK  168  A    between atoms: _416  and  _418
REMARK  169  A    between atoms: _418  and  _419
REMARK  170  A    between atoms: _418  and  _421
REMARK  171  A    between atoms: _421  and  _422
REMARK  172  A    between atoms: _425  and  _427
REMARK  173  A    between atoms: _427  and  _428
REMARK  174  A    between atoms: _427  and  _430
REMARK  175  A    between atoms: _430  and  _431
REMARK  176  A    between atoms: _434  and  _436
REMARK  177  A    between atoms: _436  and  _437
REMARK  178  A    between atoms: _436  and  _439
REMARK  179  A    between atoms: _439  and  _440
REMARK  180  A    between atoms: _440  and  _441
REMARK  181  A    between atoms: _441  and  _442
REMARK  182  A    between atoms: _451  and  _453
REMARK  183  A    between atoms: _453  and  _454
REMARK  184  A    between atoms: _456  and  _458
REMARK  185  A    between atoms: _458  and  _459
REMARK  186  A    between atoms: _458  and  _461
REMARK  187  A    between atoms: _461  and  _462
REMARK  188  A    between atoms: _467  and  _469
REMARK  189  A    between atoms: _469  and  _470
REMARK  190  A    between atoms: _469  and  _472
REMARK  191  A    between atoms: _472  and  _473
REMARK  192  A    between atoms: _476  and  _478
REMARK  193  A    between atoms: _478  and  _479
REMARK  194  A    between atoms: _478  and  _481
REMARK  195  A    between atoms: _481  and  _482
REMARK  196  A    between atoms: _482  and  _483
REMARK  197  A    between atoms: _485  and  _487
REMARK  198  A    between atoms: _487  and  _488
REMARK  199  A    between atoms: _487  and  _490
REMARK  200  A    between atoms: _490  and  _491
REMARK  201  A    between atoms: _496  and  _497
REMARK  202  A    between atoms: _499  and  _501
REMARK  203  A    between atoms: _501  and  _502
REMARK  204  A    between atoms: _506  and  _507
REMARK  205  A    between atoms: _512  and  _514
REMARK  206  A    between atoms: _514  and  _515
REMARK  207  A    between atoms: _514  and  _517
REMARK  208  A    between atoms: _517  and  _518
REMARK  209  A    between atoms: _521  and  _523
REMARK  210  A    between atoms: _523  and  _524
REMARK  211  A    between atoms: _523  and  _526
REMARK  212  A    between atoms: _526  and  _527
REMARK  213  A    between atoms: _527  and  _528
REMARK  214  A    between atoms: _533  and  _535
REMARK  215  A    between atoms: _535  and  _536
REMARK  216  A    between atoms: _535  and  _538
REMARK  217  A    between atoms: _538  and  _539
REMARK  218  A    between atoms: _542  and  _544
REMARK  219  A    between atoms: _544  and  _545
REMARK  220  A    between atoms: _544  and  _547
REMARK  221  A    between atoms: _547  and  _548
REMARK  222  A    between atoms: _553  and  _554
REMARK  223  A    between atoms: _556  and  _558
REMARK  224  A    between atoms: _558  and  _559
REMARK  225  A    between atoms: _561  and  _563
REMARK  226  A    between atoms: _563  and  _564
REMARK  227  A    between atoms: _563  and  _566
REMARK  228  A    between atoms: _566  and  _567
REMARK  229  A    between atoms: _570  and  _572
REMARK  230  A    between atoms: _572  and  _573
REMARK  231  A    between atoms: _572  and  _575
REMARK  232  A    between atoms: _575  and  _576
REMARK  233  A    between atoms: _581  and  _583
REMARK  234  A    between atoms: _583  and  _584
REMARK  235  A    between atoms: _583  and  _586
REMARK  236  A    between atoms: _586  and  _587
REMARK  237  A    between atoms: _593  and  _595
REMARK  238  A    between atoms: _595  and  _596
REMARK  239  A    between atoms: _599  and  _601
REMARK  240  A    between atoms: _601  and  _602
REMARK  241  A    between atoms: _604  and  _606
REMARK  242  A    between atoms: _606  and  _607
REMARK  243  A    between atoms: _606  and  _609
REMARK  244  A    between atoms: _609  and  _610
REMARK  245  A    between atoms: _615  and  _616
REMARK                            x       y       z     vdW  Elec       q    Type
REMARK                         _______ _______ _______ _____ _____    ______ ____
ROOT
ATOM      1  O   HOH     1     -15.028 -10.425  17.719  0.00  0.00    +0.000 OA
ENDROOT
TORSDOF 0
REMARK  Name = ../refined-set-2016/3fql/3fql_pocket.pdb
REMARK  245 active torsions:
REMARK  status: ('A' for Active; 'I' for Inactive)
REMARK    1  A    between atoms: _1  and  _3
REMARK    2  A    between atoms: _3  and  _4
REMARK    3  A    between atoms: _3  and  _6
REMARK    4  A    between atoms: _6  and  _7
REMARK    5  A    between atoms: _9  and  _11
REMARK    6  A    between atoms: _11  and  _12
REMARK    7  A    between atoms: _11  and  _14
REMARK    8  A    between atoms: _14  and  _15
REMARK    9  A    between atoms: _20  and  _21
REMARK   10  A    between atoms: _23  and  _25
REMARK   11  A    between atoms: _25  and  _26
REMARK   12  A    between atoms: _28  and  _30
REMARK   13  A    between atoms: _30  and  _31
REMARK   14  A    between atoms: _30  and  _33
REMARK   15  A    between atoms: _33  and  _34
REMARK   16  A    between atoms: _40  and  _42
REMARK   17  A    between atoms: _42  and  _43
REMARK   18  A    between atoms: _42  and  _45
REMARK   19  A    between atoms: _45  and  _46
REMARK   20  A    between atoms: _46  and  _47
REMARK   21  A    between atoms: _52  and  _54
REMARK   22  A    between atoms: _54  and  _55
REMARK   23  A    between atoms: _54  and  _57
REMARK   24  A    between atoms: _57  and  _58
REMARK   25  A    between atoms: _63  and  _64
REMARK   26  A    between atoms: _66  and  _68
REMARK   27  A    between atoms: _68  and  _69
REMARK   28  A    between atoms: _68  and  _71
REMARK   29  A    between atoms: _71  and  _72
REMARK   30  A    between atoms: _75  and  _76
REMARK   31  A    between atoms: _81  and  _83
REMARK   32  A    between atoms: _83  and  _84
REMARK   33  A    between atoms: _86  and  _88
REMARK   34  A    between atoms: _88  and  _89
REMARK   35  A    between atoms: _88  and  _91
REMARK   36  A    between atoms: _91  and  _92
REMARK   37  A    between atoms: _92  and  _93
REMARK   38  A    between atoms: _98  and  _100
REMARK   39  A    between atoms: _100  and  _101
REMARK   40  A    between atoms: _100  and  _103
REMARK   41  A    between atoms: _103  and  _104
REMARK   42  A    between atoms: _104  and  _105
REMARK   43  A    between atoms: _105  and  _106
REMARK   44  A    between atoms: _115  and  _117
REMARK   45  A    between atoms: _117  and  _118
REMARK   46  A    between atoms: _117  and  _120
REMARK   47  A    between atoms: _123  and  _125
REMARK   48  A    between atoms: _125  and  _126
REMARK   49  A    between atoms: _125  and  _128
REMARK   50  A    between atoms: _128  and  _129
REMARK   51  A    between atoms: _135  and  _137
REMARK   52  A    between atoms: _137  and  _138
REMARK   53  A    between atoms: _137  and  _140
REMARK   54  A    between atoms: _140  and  _141
REMARK   55  A    between atoms: _144  and  _146
REMARK   56  A    between atoms: _146  and  _147
REMARK   57  A    between atoms: _146  and  _149
REMARK   58  A    between atoms: _149  and  _150
REMARK   59  A    between atoms: _160  and  _162
REMARK   60  A    between atoms: _162  and  _163
REMARK   61  A    between atoms: _165  and  _167
REMARK   62  A    between atoms: _167  and  _168
REMARK   63  A    between atoms: _167  and  _170
REMARK   64  A    between atoms: _170  and  _171
REMARK   65  A    between atoms: _177  and  _179
REMARK   66  A    between atoms: _179  and  _180
REMARK   67  A    between atoms: _183  and  _185
REMARK   68  A    between atoms: _185  and  _186
REMARK   69  A    between atoms: _185  and  _188
REMARK   70  A    between atoms: _188  and  _189
REMARK   71  A    between atoms: _194  and  _195
REMARK   72  A    between atoms: _197  and  _199
REMARK   73  A    between atoms: _199  and  _200
REMARK   74  A    between atoms: _199  and  _202
REMARK   75  A    between atoms: _202  and  _203
REMARK   76  A    between atoms: _203  and  _204
REMARK   77  A    between atoms: _206  and  _208
REMARK   78  A    between atoms: _208  and  _209
REMARK   79  A    between atoms: _208  and  _211
REMARK   80  A    between atoms: _211  and  _212
REMARK   81  A    between atoms: _215  and  _217
REMARK   82  A    between atoms: _217  and  _218
REMARK   83  A    between atoms: _217  and  _220
REMARK   84  A    between atoms: _223  and  _225
REMARK   85  A    between atoms: _225  and  _226
REMARK   86  A    between atoms: _225  and  _228
REMARK   87  A    between atoms: _230  and  _232
REMARK   88  A    between atoms: _232  and  _233
REMARK   89  A    between atoms: _235  and  _237
REMARK   90  A    between atoms: _237  and  _238
REMARK   91  A    between atoms: _237  and  _240
REMARK   92  A    between atoms: _240  and  _241
REMARK   93  A    between atoms: _244  and  _246
REMARK   94  A    between atoms: _246  and  _247
REMARK   95  A    between atoms: _246  and  _249
REMARK   96  A    between atoms: _249  and  _250
REMARK   97  A    between atoms: _253  and  _255
REMARK   98  A    between atoms: _255  and  _256
REMARK   99  A    between atoms: _255  and  _258
REMARK  100  A    between atoms: _258  and  _259
REMARK  101  A    between atoms: _262  and  _264
REMARK  102  A    between atoms: _264  and  _265
REMARK  103  A    between atoms: _264  and  _267
REMARK  104  A    between atoms: _270  and  _272
REMARK  105  A    between atoms: _272  and  _273
REMARK  106  A    between atoms: _272  and  _275
REMARK  107  A    between atoms: _278  and  _280
REMARK  108  A    between atoms: _280  and  _281
REMARK  109  A    between atoms: _280  and  _283
REMARK  110  A    between atoms: _283  and  _284
REMARK  111  A    between atoms: _287  and  _289
REMARK  112  A    between atoms: _289  and  _290
REMARK  113  A    between atoms: _289  and  _292
REMARK  114  A    between atoms: _292  and  _293
REMARK  115  A    between atoms: _293  and  _294
REMARK  116  A    between atoms: _297  and  _299
REMARK  117  A    between atoms: _299  and  _300
REMARK  118  A    between atoms: _299  and  _302
REMARK  119  A    between atoms: _302  and  _303
REMARK  120  A    between atoms: _306  and  _308
REMARK  121  A    between atoms: _308  and  _309
REMARK  122  A    between atoms: _308  and  _311
REMARK  123  A    between atoms: _311  and  _312
REMARK  124  A    between atoms: _315  and  _317
REMARK  125  A    between atoms: _317  and  _318
REMARK  126  A    between atoms: _317  and  _320
REMARK  127  A    between atoms: _320  and  _321
REMARK  128  A    between atoms: _321  and  _322
REMARK  129  A    between atoms: _325  and  _327
REMARK  130  A    between atoms: _327  and  _328
REMARK  131  A    between atoms: _327  and  _330
REMARK  132  A    between atoms: _330  and  _331
REMARK  133  A    between atoms: _334  and  _336
REMARK  134  A    between atoms: _336  and  _337
REMARK  135  A    between atoms: _336  and  _339
REMARK  136  A    between atoms: _339  and  _340
REMARK  137  A    between atoms: _343  and  _345
REMARK  138  A    between atoms: _345  and  _346
REMARK  139  A    between atoms: _345  and  _348
REMARK  140  A    between atoms: _348  and  _349
REMARK  141  A    between atoms: _352  and  _354
REMARK  142  A    between atoms: _354  and  _355
REMARK  143  A    between atoms: _354  and  _357
REMARK  144  A    between atoms: _357  and  _358
REMARK  145  A    between atoms: _360  and  _362
REMARK  146  A    between atoms: _362  and  _363
REMARK  147  A    between atoms: _362  and  _365
REMARK  148  A    between atoms: _367  and  _369
REMARK  149  A    between atoms: _369  and  _370
REMARK  150  A    between atoms: _369  and  _372
REMARK  151  A    between atoms: _372  and  _373
REMARK  152  A    between atoms: _375  and  _377
REMARK  153  A    between atoms: _377  and  _378
REMARK  154  A    between atoms: _377  and  _380
REMARK  155  A    between atoms: _380  and  _381
REMARK  156  A    between atoms: _383  and  _385
REMARK  157  A    between atoms: _385  and  _386
REMARK  158  A    between atoms: _385  and  _388
REMARK  159  A    between atoms: _388  and  _389
REMARK  160  A    between atoms: _394  and  _396
REMARK  161  A    between atoms: _396  and  _397
REMARK  162  A    between atoms: _396  and  _399
REMARK  163  A    between atoms: _402  and  _404
REMARK  164  A    between atoms: _404  and  _405
REMARK  165  A    between atoms: _404  and  _407
REMARK  166  A    between atoms: _407  and  _408
REMARK  167  A    between atoms: _413  and  _414
REMARK  168  A    between atoms: _416  and  _418
REMARK  169  A    between atoms: _418  and  _419
REMARK  170  A    between atoms: _418  and  _421
REMARK  171  A    between atoms: _421  and  _422
REMARK  172  A    between atoms: _425  and  _427
REMARK  173  A    between atoms: _427  and  _428
REMARK  174  A    between atoms: _427  and  _430
REMARK  175  A    between atoms: _430  and  _431
REMARK  176  A    between atoms: _434  and  _436
REMARK  177  A    between atoms: _436  and  _437
REMARK  178  A    between atoms: _436  and  _439
REMARK  179  A    between atoms: _439  and  _440
REMARK  180  A    between atoms: _440  and  _441
REMARK  181  A    between atoms: _441  and  _442
REMARK  182  A    between atoms: _451  and  _453
REMARK  183  A    between atoms: _453  and  _454
REMARK  184  A    between atoms: _456  and  _458
REMARK  185  A    between atoms: _458  and  _459
REMARK  186  A    between atoms: _458  and  _461
REMARK  187  A    between atoms: _461  and  _462
REMARK  188  A    between atoms: _467  and  _469
REMARK  189  A    between atoms: _469  and  _470
REMARK  190  A    between atoms: _469  and  _472
REMARK  191  A    between atoms: _472  and  _473
REMARK  192  A    between atoms: _476  and  _478
REMARK  193  A    between atoms: _478  and  _479
REMARK  194  A    between atoms: _478  and  _481
REMARK  195  A    between atoms: _481  and  _482
REMARK  196  A    between atoms: _482  and  _483
REMARK  197  A    between atoms: _485  and  _487
REMARK  198  A    between atoms: _487  and  _488
REMARK  199  A    between atoms: _487  and  _490
REMARK  200  A    between atoms: _490  and  _491
REMARK  201  A    between atoms: _496  and  _497
REMARK  202  A    between atoms: _499  and  _501
REMARK  203  A    between atoms: _501  and  _502
REMARK  204  A    between atoms: _506  and  _507
REMARK  205  A    between atoms: _512  and  _514
REMARK  206  A    between atoms: _514  and  _515
REMARK  207  A    between atoms: _514  and  _517
REMARK  208  A    between atoms: _517  and  _518
REMARK  209  A    between atoms: _521  and  _523
REMARK  210  A    between atoms: _523  and  _524
REMARK  211  A    between atoms: _523  and  _526
REMARK  212  A    between atoms: _526  and  _527
REMARK  213  A    between atoms: _527  and  _528
REMARK  214  A    between atoms: _533  and  _535
REMARK  215  A    between atoms: _535  and  _536
REMARK  216  A    between atoms: _535  and  _538
REMARK  217  A    between atoms: _538  and  _539
REMARK  218  A    between atoms: _542  and  _544
REMARK  219  A    between atoms: _544  and  _545
REMARK  220  A    between atoms: _544  and  _547
REMARK  221  A    between atoms: _547  and  _548
REMARK  222  A    between atoms: _553  and  _554
REMARK  223  A    between atoms: _556  and  _558
REMARK  224  A    between atoms: _558  and  _559
REMARK  225  A    between atoms: _561  and  _563
REMARK  226  A    between atoms: _563  and  _564
REMARK  227  A    between atoms: _563  and  _566
REMARK  228  A    between atoms: _566  and  _567
REMARK  229  A    between atoms: _570  and  _572
REMARK  230  A    between atoms: _572  and  _573
REMARK  231  A    between atoms: _572  and  _575
REMARK  232  A    between atoms: _575  and  _576
REMARK  233  A    between atoms: _581  and  _583
REMARK  234  A    between atoms: _583  and  _584
REMARK  235  A    between atoms: _583  and  _586
REMARK  236  A    between atoms: _586  and  _587
REMARK  237  A    between atoms: _593  and  _595
REMARK  238  A    between atoms: _595  and  _596
REMARK  239  A    between atoms: _599  and  _601
REMARK  240  A    between atoms: _601  and  _602
REMARK  241  A    between atoms: _604  and  _606
REMARK  242  A    between atoms: _606  and  _607
REMARK  243  A    between atoms: _606  and  _609
REMARK  244  A    between atoms: _609  and  _610
REMARK  245  A    between atoms: _615  and  _616
REMARK                            x       y       z     vdW  Elec       q    Type
REMARK                         _______ _______ _______ _____ _____    ______ ____
ROOT
ATOM      1  O   HOH     1     -23.712  -2.996  11.841  0.00  0.00    +0.000 OA
ENDROOT
TORSDOF 0
REMARK  Name = ../refined-set-2016/3fql/3fql_pocket.pdb
REMARK  245 active torsions:
REMARK  status: ('A' for Active; 'I' for Inactive)
REMARK    1  A    between atoms: _1  and  _3
REMARK    2  A    between atoms: _3  and  _4
REMARK    3  A    between atoms: _3  and  _6
REMARK    4  A    between atoms: _6  and  _7
REMARK    5  A    between atoms: _9  and  _11
REMARK    6  A    between atoms: _11  and  _12
REMARK    7  A    between atoms: _11  and  _14
REMARK    8  A    between atoms: _14  and  _15
REMARK    9  A    between atoms: _20  and  _21
REMARK   10  A    between atoms: _23  and  _25
REMARK   11  A    between atoms: _25  and  _26
REMARK   12  A    between atoms: _28  and  _30
REMARK   13  A    between atoms: _30  and  _31
REMARK   14  A    between atoms: _30  and  _33
REMARK   15  A    between atoms: _33  and  _34
REMARK   16  A    between atoms: _40  and  _42
REMARK   17  A    between atoms: _42  and  _43
REMARK   18  A    between atoms: _42  and  _45
REMARK   19  A    between atoms: _45  and  _46
REMARK   20  A    between atoms: _46  and  _47
REMARK   21  A    between atoms: _52  and  _54
REMARK   22  A    between atoms: _54  and  _55
REMARK   23  A    between atoms: _54  and  _57
REMARK   24  A    between atoms: _57  and  _58
REMARK   25  A    between atoms: _63  and  _64
REMARK   26  A    between atoms: _66  and  _68
REMARK   27  A    between atoms: _68  and  _69
REMARK   28  A    between atoms: _68  and  _71
REMARK   29  A    between atoms: _71  and  _72
REMARK   30  A    between atoms: _75  and  _76
REMARK   31  A    between atoms: _81  and  _83
REMARK   32  A    between atoms: _83  and  _84
REMARK   33  A    between atoms: _86  and  _88
REMARK   34  A    between atoms: _88  and  _89
REMARK   35  A    between atoms: _88  and  _91
REMARK   36  A    between atoms: _91  and  _92
REMARK   37  A    between atoms: _92  and  _93
REMARK   38  A    between atoms: _98  and  _100
REMARK   39  A    between atoms: _100  and  _101
REMARK   40  A    between atoms: _100  and  _103
REMARK   41  A    between atoms: _103  and  _104
REMARK   42  A    between atoms: _104  and  _105
REMARK   43  A    between atoms: _105  and  _106
REMARK   44  A    between atoms: _115  and  _117
REMARK   45  A    between atoms: _117  and  _118
REMARK   46  A    between atoms: _117  and  _120
REMARK   47  A    between atoms: _123  and  _125
REMARK   48  A    between atoms: _125  and  _126
REMARK   49  A    between atoms: _125  and  _128
REMARK   50  A    between atoms: _128  and  _129
REMARK   51  A    between atoms: _135  and  _137
REMARK   52  A    between atoms: _137  and  _138
REMARK   53  A    between atoms: _137  and  _140
REMARK   54  A    between atoms: _140  and  _141
REMARK   55  A    between atoms: _144  and  _146
REMARK   56  A    between atoms: _146  and  _147
REMARK   57  A    between atoms: _146  and  _149
REMARK   58  A    between atoms: _149  and  _150
REMARK   59  A    between atoms: _160  and  _162
REMARK   60  A    between atoms: _162  and  _163
REMARK   61  A    between atoms: _165  and  _167
REMARK   62  A    between atoms: _167  and  _168
REMARK   63  A    between atoms: _167  and  _170
REMARK   64  A    between atoms: _170  and  _171
REMARK   65  A    between atoms: _177  and  _179
REMARK   66  A    between atoms: _179  and  _180
REMARK   67  A    between atoms: _183  and  _185
REMARK   68  A    between atoms: _185  and  _186
REMARK   69  A    between atoms: _185  and  _188
REMARK   70  A    between atoms: _188  and  _189
REMARK   71  A    between atoms: _194  and  _195
REMARK   72  A    between atoms: _197  and  _199
REMARK   73  A    between atoms: _199  and  _200
REMARK   74  A    between atoms: _199  and  _202
REMARK   75  A    between atoms: _202  and  _203
REMARK   76  A    between atoms: _203  and  _204
REMARK   77  A    between atoms: _206  and  _208
REMARK   78  A    between atoms: _208  and  _209
REMARK   79  A    between atoms: _208  and  _211
REMARK   80  A    between atoms: _211  and  _212
REMARK   81  A    between atoms: _215  and  _217
REMARK   82  A    between atoms: _217  and  _218
REMARK   83  A    between atoms: _217  and  _220
REMARK   84  A    between atoms: _223  and  _225
REMARK   85  A    between atoms: _225  and  _226
REMARK   86  A    between atoms: _225  and  _228
REMARK   87  A    between atoms: _230  and  _232
REMARK   88  A    between atoms: _232  and  _233
REMARK   89  A    between atoms: _235  and  _237
REMARK   90  A    between atoms: _237  and  _238
REMARK   91  A    between atoms: _237  and  _240
REMARK   92  A    between atoms: _240  and  _241
REMARK   93  A    between atoms: _244  and  _246
REMARK   94  A    between atoms: _246  and  _247
REMARK   95  A    between atoms: _246  and  _249
REMARK   96  A    between atoms: _249  and  _250
REMARK   97  A    between atoms: _253  and  _255
REMARK   98  A    between atoms: _255  and  _256
REMARK   99  A    between atoms: _255  and  _258
REMARK  100  A    between atoms: _258  and  _259
REMARK  101  A    between atoms: _262  and  _264
REMARK  102  A    between atoms: _264  and  _265
REMARK  103  A    between atoms: _264  and  _267
REMARK  104  A    between atoms: _270  and  _272
REMARK  105  A    between atoms: _272  and  _273
REMARK  106  A    between atoms: _272  and  _275
REMARK  107  A    between atoms: _278  and  _280
REMARK  108  A    between atoms: _280  and  _281
REMARK  109  A    between atoms: _280  and  _283
REMARK  110  A    between atoms: _283  and  _284
REMARK  111  A    between atoms: _287  and  _289
REMARK  112  A    between atoms: _289  and  _290
REMARK  113  A    between atoms: _289  and  _292
REMARK  114  A    between atoms: _292  and  _293
REMARK  115  A    between atoms: _293  and  _294
REMARK  116  A    between atoms: _297  and  _299
REMARK  117  A    between atoms: _299  and  _300
REMARK  118  A    between atoms: _299  and  _302
REMARK  119  A    between atoms: _302  and  _303
REMARK  120  A    between atoms: _306  and  _308
REMARK  121  A    between atoms: _308  and  _309
REMARK  122  A    between atoms: _308  and  _311
REMARK  123  A    between atoms: _311  and  _312
REMARK  124  A    between atoms: _315  and  _317
REMARK  125  A    between atoms: _317  and  _318
REMARK  126  A    between atoms: _317  and  _320
REMARK  127  A    between atoms: _320  and  _321
REMARK  128  A    between atoms: _321  and  _322
REMARK  129  A    between atoms: _325  and  _327
REMARK  130  A    between atoms: _327  and  _328
REMARK  131  A    between atoms: _327  and  _330
REMARK  132  A    between atoms: _330  and  _331
REMARK  133  A    between atoms: _334  and  _336
REMARK  134  A    between atoms: _336  and  _337
REMARK  135  A    between atoms: _336  and  _339
REMARK  136  A    between atoms: _339  and  _340
REMARK  137  A    between atoms: _343  and  _345
REMARK  138  A    between atoms: _345  and  _346
REMARK  139  A    between atoms: _345  and  _348
REMARK  140  A    between atoms: _348  and  _349
REMARK  141  A    between atoms: _352  and  _354
REMARK  142  A    between atoms: _354  and  _355
REMARK  143  A    between atoms: _354  and  _357
REMARK  144  A    between atoms: _357  and  _358
REMARK  145  A    between atoms: _360  and  _362
REMARK  146  A    between atoms: _362  and  _363
REMARK  147  A    between atoms: _362  and  _365
REMARK  148  A    between atoms: _367  and  _369
REMARK  149  A    between atoms: _369  and  _370
REMARK  150  A    between atoms: _369  and  _372
REMARK  151  A    between atoms: _372  and  _373
REMARK  152  A    between atoms: _375  and  _377
REMARK  153  A    between atoms: _377  and  _378
REMARK  154  A    between atoms: _377  and  _380
REMARK  155  A    between atoms: _380  and  _381
REMARK  156  A    between atoms: _383  and  _385
REMARK  157  A    between atoms: _385  and  _386
REMARK  158  A    between atoms: _385  and  _388
REMARK  159  A    between atoms: _388  and  _389
REMARK  160  A    between atoms: _394  and  _396
REMARK  161  A    between atoms: _396  and  _397
REMARK  162  A    between atoms: _396  and  _399
REMARK  163  A    between atoms: _402  and  _404
REMARK  164  A    between atoms: _404  and  _405
REMARK  165  A    between atoms: _404  and  _407
REMARK  166  A    between atoms: _407  and  _408
REMARK  167  A    between atoms: _413  and  _414
REMARK  168  A    between atoms: _416  and  _418
REMARK  169  A    between atoms: _418  and  _419
REMARK  170  A    between atoms: _418  and  _421
REMARK  171  A    between atoms: _421  and  _422
REMARK  172  A    between atoms: _425  and  _427
REMARK  173  A    between atoms: _427  and  _428
REMARK  174  A    between atoms: _427  and  _430
REMARK  175  A    between atoms: _430  and  _431
REMARK  176  A    between atoms: _434  and  _436
REMARK  177  A    between atoms: _436  and  _437
REMARK  178  A    between atoms: _436  and  _439
REMARK  179  A    between atoms: _439  and  _440
REMARK  180  A    between atoms: _440  and  _441
REMARK  181  A    between atoms: _441  and  _442
REMARK  182  A    between atoms: _451  and  _453
REMARK  183  A    between atoms: _453  and  _454
REMARK  184  A    between atoms: _456  and  _458
REMARK  185  A    between atoms: _458  and  _459
REMARK  186  A    between atoms: _458  and  _461
REMARK  187  A    between atoms: _461  and  _462
REMARK  188  A    between atoms: _467  and  _469
REMARK  189  A    between atoms: _469  and  _470
REMARK  190  A    between atoms: _469  and  _472
REMARK  191  A    between atoms: _472  and  _473
REMARK  192  A    between atoms: _476  and  _478
REMARK  193  A    between atoms: _478  and  _479
REMARK  194  A    between atoms: _478  and  _481
REMARK  195  A    between atoms: _481  and  _482
REMARK  196  A    between atoms: _482  and  _483
REMARK  197  A    between atoms: _485  and  _487
REMARK  198  A    between atoms: _487  and  _488
REMARK  199  A    between atoms: _487  and  _490
REMARK  200  A    between atoms: _490  and  _491
REMARK  201  A    between atoms: _496  and  _497
REMARK  202  A    between atoms: _499  and  _501
REMARK  203  A    between atoms: _501  and  _502
REMARK  204  A    between atoms: _506  and  _507
REMARK  205  A    between atoms: _512  and  _514
REMARK  206  A    between atoms: _514  and  _515
REMARK  207  A    between atoms: _514  and  _517
REMARK  208  A    between atoms: _517  and  _518
REMARK  209  A    between atoms: _521  and  _523
REMARK  210  A    between atoms: _523  and  _524
REMARK  211  A    between atoms: _523  and  _526
REMARK  212  A    between atoms: _526  and  _527
REMARK  213  A    between atoms: _527  and  _528
REMARK  214  A    between atoms: _533  and  _535
REMARK  215  A    between atoms: _535  and  _536
REMARK  216  A    between atoms: _535  and  _538
REMARK  217  A    between atoms: _538  and  _539
REMARK  218  A    between atoms: _542  and  _544
REMARK  219  A    between atoms: _544  and  _545
REMARK  220  A    between atoms: _544  and  _547
REMARK  221  A    between atoms: _547  and  _548
REMARK  222  A    between atoms: _553  and  _554
REMARK  223  A    between atoms: _556  and  _558
REMARK  224  A    between atoms: _558  and  _559
REMARK  225  A    between atoms: _561  and  _563
REMARK  226  A    between atoms: _563  and  _564
REMARK  227  A    between atoms: _563  and  _566
REMARK  228  A    between atoms: _566  and  _567
REMARK  229  A    between atoms: _570  and  _572
REMARK  230  A    between atoms: _572  and  _573
REMARK  231  A    between atoms: _572  and  _575
REMARK  232  A    between atoms: _575  and  _576
REMARK  233  A    between atoms: _581  and  _583
REMARK  234  A    between atoms: _583  and  _584
REMARK  235  A    between atoms: _583  and  _586
REMARK  236  A    between atoms: _586  and  _587
REMARK  237  A    between atoms: _593  and  _595
REMARK  238  A    between atoms: _595  and  _596
REMARK  239  A    between atoms: _599  and  _601
REMARK  240  A    between atoms: _601  and  _602
REMARK  241  A    between atoms: _604  and  _606
REMARK  242  A    between atoms: _606  and  _607
REMARK  243  A    between atoms: _606  and  _609
REMARK  244  A    between atoms: _609  and  _610
REMARK  245  A    between atoms: _615  and  _616
REMARK                            x       y       z     vdW  Elec       q    Type
REMARK                         _______ _______ _______ _____ _____    ______ ____
ROOT
ATOM      1  O   HOH     1     -17.334  -9.957  18.640  0.00  0.00    +0.000 OA
ENDROOT
TORSDOF 0
REMARK  Name = ../refined-set-2016/3fql/3fql_pocket.pdb
REMARK  245 active torsions:
REMARK  status: ('A' for Active; 'I' for Inactive)
REMARK    1  A    between atoms: _1  and  _3
REMARK    2  A    between atoms: _3  and  _4
REMARK    3  A    between atoms: _3  and  _6
REMARK    4  A    between atoms: _6  and  _7
REMARK    5  A    between atoms: _9  and  _11
REMARK    6  A    between atoms: _11  and  _12
REMARK    7  A    between atoms: _11  and  _14
REMARK    8  A    between atoms: _14  and  _15
REMARK    9  A    between atoms: _20  and  _21
REMARK   10  A    between atoms: _23  and  _25
REMARK   11  A    between atoms: _25  and  _26
REMARK   12  A    between atoms: _28  and  _30
REMARK   13  A    between atoms: _30  and  _31
REMARK   14  A    between atoms: _30  and  _33
REMARK   15  A    between atoms: _33  and  _34
REMARK   16  A    between atoms: _40  and  _42
REMARK   17  A    between atoms: _42  and  _43
REMARK   18  A    between atoms: _42  and  _45
REMARK   19  A    between atoms: _45  and  _46
REMARK   20  A    between atoms: _46  and  _47
REMARK   21  A    between atoms: _52  and  _54
REMARK   22  A    between atoms: _54  and  _55
REMARK   23  A    between atoms: _54  and  _57
REMARK   24  A    between atoms: _57  and  _58
REMARK   25  A    between atoms: _63  and  _64
REMARK   26  A    between atoms: _66  and  _68
REMARK   27  A    between atoms: _68  and  _69
REMARK   28  A    between atoms: _68  and  _71
REMARK   29  A    between atoms: _71  and  _72
REMARK   30  A    between atoms: _75  and  _76
REMARK   31  A    between atoms: _81  and  _83
REMARK   32  A    between atoms: _83  and  _84
REMARK   33  A    between atoms: _86  and  _88
REMARK   34  A    between atoms: _88  and  _89
REMARK   35  A    between atoms: _88  and  _91
REMARK   36  A    between atoms: _91  and  _92
REMARK   37  A    between atoms: _92  and  _93
REMARK   38  A    between atoms: _98  and  _100
REMARK   39  A    between atoms: _100  and  _101
REMARK   40  A    between atoms: _100  and  _103
REMARK   41  A    between atoms: _103  and  _104
REMARK   42  A    between atoms: _104  and  _105
REMARK   43  A    between atoms: _105  and  _106
REMARK   44  A    between atoms: _115  and  _117
REMARK   45  A    between atoms: _117  and  _118
REMARK   46  A    between atoms: _117  and  _120
REMARK   47  A    between atoms: _123  and  _125
REMARK   48  A    between atoms: _125  and  _126
REMARK   49  A    between atoms: _125  and  _128
REMARK   50  A    between atoms: _128  and  _129
REMARK   51  A    between atoms: _135  and  _137
REMARK   52  A    between atoms: _137  and  _138
REMARK   53  A    between atoms: _137  and  _140
REMARK   54  A    between atoms: _140  and  _141
REMARK   55  A    between atoms: _144  and  _146
REMARK   56  A    between atoms: _146  and  _147
REMARK   57  A    between atoms: _146  and  _149
REMARK   58  A    between atoms: _149  and  _150
REMARK   59  A    between atoms: _160  and  _162
REMARK   60  A    between atoms: _162  and  _163
REMARK   61  A    between atoms: _165  and  _167
REMARK   62  A    between atoms: _167  and  _168
REMARK   63  A    between atoms: _167  and  _170
REMARK   64  A    between atoms: _170  and  _171
REMARK   65  A    between atoms: _177  and  _179
REMARK   66  A    between atoms: _179  and  _180
REMARK   67  A    between atoms: _183  and  _185
REMARK   68  A    between atoms: _185  and  _186
REMARK   69  A    between atoms: _185  and  _188
REMARK   70  A    between atoms: _188  and  _189
REMARK   71  A    between atoms: _194  and  _195
REMARK   72  A    between atoms: _197  and  _199
REMARK   73  A    between atoms: _199  and  _200
REMARK   74  A    between atoms: _199  and  _202
REMARK   75  A    between atoms: _202  and  _203
REMARK   76  A    between atoms: _203  and  _204
REMARK   77  A    between atoms: _206  and  _208
REMARK   78  A    between atoms: _208  and  _209
REMARK   79  A    between atoms: _208  and  _211
REMARK   80  A    between atoms: _211  and  _212
REMARK   81  A    between atoms: _215  and  _217
REMARK   82  A    between atoms: _217  and  _218
REMARK   83  A    between atoms: _217  and  _220
REMARK   84  A    between atoms: _223  and  _225
REMARK   85  A    between atoms: _225  and  _226
REMARK   86  A    between atoms: _225  and  _228
REMARK   87  A    between atoms: _230  and  _232
REMARK   88  A    between atoms: _232  and  _233
REMARK   89  A    between atoms: _235  and  _237
REMARK   90  A    between atoms: _237  and  _238
REMARK   91  A    between atoms: _237  and  _240
REMARK   92  A    between atoms: _240  and  _241
REMARK   93  A    between atoms: _244  and  _246
REMARK   94  A    between atoms: _246  and  _247
REMARK   95  A    between atoms: _246  and  _249
REMARK   96  A    between atoms: _249  and  _250
REMARK   97  A    between atoms: _253  and  _255
REMARK   98  A    between atoms: _255  and  _256
REMARK   99  A    between atoms: _255  and  _258
REMARK  100  A    between atoms: _258  and  _259
REMARK  101  A    between atoms: _262  and  _264
REMARK  102  A    between atoms: _264  and  _265
REMARK  103  A    between atoms: _264  and  _267
REMARK  104  A    between atoms: _270  and  _272
REMARK  105  A    between atoms: _272  and  _273
REMARK  106  A    between atoms: _272  and  _275
REMARK  107  A    between atoms: _278  and  _280
REMARK  108  A    between atoms: _280  and  _281
REMARK  109  A    between atoms: _280  and  _283
REMARK  110  A    between atoms: _283  and  _284
REMARK  111  A    between atoms: _287  and  _289
REMARK  112  A    between atoms: _289  and  _290
REMARK  113  A    between atoms: _289  and  _292
REMARK  114  A    between atoms: _292  and  _293
REMARK  115  A    between atoms: _293  and  _294
REMARK  116  A    between atoms: _297  and  _299
REMARK  117  A    between atoms: _299  and  _300
REMARK  118  A    between atoms: _299  and  _302
REMARK  119  A    between atoms: _302  and  _303
REMARK  120  A    between atoms: _306  and  _308
REMARK  121  A    between atoms: _308  and  _309
REMARK  122  A    between atoms: _308  and  _311
REMARK  123  A    between atoms: _311  and  _312
REMARK  124  A    between atoms: _315  and  _317
REMARK  125  A    between atoms: _317  and  _318
REMARK  126  A    between atoms: _317  and  _320
REMARK  127  A    between atoms: _320  and  _321
REMARK  128  A    between atoms: _321  and  _322
REMARK  129  A    between atoms: _325  and  _327
REMARK  130  A    between atoms: _327  and  _328
REMARK  131  A    between atoms: _327  and  _330
REMARK  132  A    between atoms: _330  and  _331
REMARK  133  A    between atoms: _334  and  _336
REMARK  134  A    between atoms: _336  and  _337
REMARK  135  A    between atoms: _336  and  _339
REMARK  136  A    between atoms: _339  and  _340
REMARK  137  A    between atoms: _343  and  _345
REMARK  138  A    between atoms: _345  and  _346
REMARK  139  A    between atoms: _345  and  _348
REMARK  140  A    between atoms: _348  and  _349
REMARK  141  A    between atoms: _352  and  _354
REMARK  142  A    between atoms: _354  and  _355
REMARK  143  A    between atoms: _354  and  _357
REMARK  144  A    between atoms: _357  and  _358
REMARK  145  A    between atoms: _360  and  _362
REMARK  146  A    between atoms: _362  and  _363
REMARK  147  A    between atoms: _362  and  _365
REMARK  148  A    between atoms: _367  and  _369
REMARK  149  A    between atoms: _369  and  _370
REMARK  150  A    between atoms: _369  and  _372
REMARK  151  A    between atoms: _372  and  _373
REMARK  152  A    between atoms: _375  and  _377
REMARK  153  A    between atoms: _377  and  _378
REMARK  154  A    between atoms: _377  and  _380
REMARK  155  A    between atoms: _380  and  _381
REMARK  156  A    between atoms: _383  and  _385
REMARK  157  A    between atoms: _385  and  _386
REMARK  158  A    between atoms: _385  and  _388
REMARK  159  A    between atoms: _388  and  _389
REMARK  160  A    between atoms: _394  and  _396
REMARK  161  A    between atoms: _396  and  _397
REMARK  162  A    between atoms: _396  and  _399
REMARK  163  A    between atoms: _402  and  _404
REMARK  164  A    between atoms: _404  and  _405
REMARK  165  A    between atoms: _404  and  _407
REMARK  166  A    between atoms: _407  and  _408
REMARK  167  A    between atoms: _413  and  _414
REMARK  168  A    between atoms: _416  and  _418
REMARK  169  A    between atoms: _418  and  _419
REMARK  170  A    between atoms: _418  and  _421
REMARK  171  A    between atoms: _421  and  _422
REMARK  172  A    between atoms: _425  and  _427
REMARK  173  A    between atoms: _427  and  _428
REMARK  174  A    between atoms: _427  and  _430
REMARK  175  A    between atoms: _430  and  _431
REMARK  176  A    between atoms: _434  and  _436
REMARK  177  A    between atoms: _436  and  _437
REMARK  178  A    between atoms: _436  and  _439
REMARK  179  A    between atoms: _439  and  _440
REMARK  180  A    between atoms: _440  and  _441
REMARK  181  A    between atoms: _441  and  _442
REMARK  182  A    between atoms: _451  and  _453
REMARK  183  A    between atoms: _453  and  _454
REMARK  184  A    between atoms: _456  and  _458
REMARK  185  A    between atoms: _458  and  _459
REMARK  186  A    between atoms: _458  and  _461
REMARK  187  A    between atoms: _461  and  _462
REMARK  188  A    between atoms: _467  and  _469
REMARK  189  A    between atoms: _469  and  _470
REMARK  190  A    between atoms: _469  and  _472
REMARK  191  A    between atoms: _472  and  _473
REMARK  192  A    between atoms: _476  and  _478
REMARK  193  A    between atoms: _478  and  _479
REMARK  194  A    between atoms: _478  and  _481
REMARK  195  A    between atoms: _481  and  _482
REMARK  196  A    between atoms: _482  and  _483
REMARK  197  A    between atoms: _485  and  _487
REMARK  198  A    between atoms: _487  and  _488
REMARK  199  A    between atoms: _487  and  _490
REMARK  200  A    between atoms: _490  and  _491
REMARK  201  A    between atoms: _496  and  _497
REMARK  202  A    between atoms: _499  and  _501
REMARK  203  A    between atoms: _501  and  _502
REMARK  204  A    between atoms: _506  and  _507
REMARK  205  A    between atoms: _512  and  _514
REMARK  206  A    between atoms: _514  and  _515
REMARK  207  A    between atoms: _514  and  _517
REMARK  208  A    between atoms: _517  and  _518
REMARK  209  A    between atoms: _521  and  _523
REMARK  210  A    between atoms: _523  and  _524
REMARK  211  A    between atoms: _523  and  _526
REMARK  212  A    between atoms: _526  and  _527
REMARK  213  A    between atoms: _527  and  _528
REMARK  214  A    between atoms: _533  and  _535
REMARK  215  A    between atoms: _535  and  _536
REMARK  216  A    between atoms: _535  and  _538
REMARK  217  A    between atoms: _538  and  _539
REMARK  218  A    between atoms: _542  and  _544
REMARK  219  A    between atoms: _544  and  _545
REMARK  220  A    between atoms: _544  and  _547
REMARK  221  A    between atoms: _547  and  _548
REMARK  222  A    between atoms: _553  and  _554
REMARK  223  A    between atoms: _556  and  _558
REMARK  224  A    between atoms: _558  and  _559
REMARK  225  A    between atoms: _561  and  _563
REMARK  226  A    between atoms: _563  and  _564
REMARK  227  A    between atoms: _563  and  _566
REMARK  228  A    between atoms: _566  and  _567
REMARK  229  A    between atoms: _570  and  _572
REMARK  230  A    between atoms: _572  and  _573
REMARK  231  A    between atoms: _572  and  _575
REMARK  232  A    between atoms: _575  and  _576
REMARK  233  A    between atoms: _581  and  _583
REMARK  234  A    between atoms: _583  and  _584
REMARK  235  A    between atoms: _583  and  _586
REMARK  236  A    between atoms: _586  and  _587
REMARK  237  A    between atoms: _593  and  _595
REMARK  238  A    between atoms: _595  and  _596
REMARK  239  A    between atoms: _599  and  _601
REMARK  240  A    between atoms: _601  and  _602
REMARK  241  A    between atoms: _604  and  _606
REMARK  242  A    between atoms: _606  and  _607
REMARK  243  A    between atoms: _606  and  _609
REMARK  244  A    between atoms: _609  and  _610
REMARK  245  A    between atoms: _615  and  _616
REMARK                            x       y       z     vdW  Elec       q    Type
REMARK                         _______ _______ _______ _____ _____    ______ ____
ROOT
ATOM      1  O   HOH     1     -16.565  -1.528  14.949  0.00  0.00    +0.000 OA
ENDROOT
TORSDOF 0
REMARK  Name = ../refined-set-2016/3fql/3fql_pocket.pdb
REMARK  245 active torsions:
REMARK  status: ('A' for Active; 'I' for Inactive)
REMARK    1  A    between atoms: _1  and  _3
REMARK    2  A    between atoms: _3  and  _4
REMARK    3  A    between atoms: _3  and  _6
REMARK    4  A    between atoms: _6  and  _7
REMARK    5  A    between atoms: _9  and  _11
REMARK    6  A    between atoms: _11  and  _12
REMARK    7  A    between atoms: _11  and  _14
REMARK    8  A    between atoms: _14  and  _15
REMARK    9  A    between atoms: _20  and  _21
REMARK   10  A    between atoms: _23  and  _25
REMARK   11  A    between atoms: _25  and  _26
REMARK   12  A    between atoms: _28  and  _30
REMARK   13  A    between atoms: _30  and  _31
REMARK   14  A    between atoms: _30  and  _33
REMARK   15  A    between atoms: _33  and  _34
REMARK   16  A    between atoms: _40  and  _42
REMARK   17  A    between atoms: _42  and  _43
REMARK   18  A    between atoms: _42  and  _45
REMARK   19  A    between atoms: _45  and  _46
REMARK   20  A    between atoms: _46  and  _47
REMARK   21  A    between atoms: _52  and  _54
REMARK   22  A    between atoms: _54  and  _55
REMARK   23  A    between atoms: _54  and  _57
REMARK   24  A    between atoms: _57  and  _58
REMARK   25  A    between atoms: _63  and  _64
REMARK   26  A    between atoms: _66  and  _68
REMARK   27  A    between atoms: _68  and  _69
REMARK   28  A    between atoms: _68  and  _71
REMARK   29  A    between atoms: _71  and  _72
REMARK   30  A    between atoms: _75  and  _76
REMARK   31  A    between atoms: _81  and  _83
REMARK   32  A    between atoms: _83  and  _84
REMARK   33  A    between atoms: _86  and  _88
REMARK   34  A    between atoms: _88  and  _89
REMARK   35  A    between atoms: _88  and  _91
REMARK   36  A    between atoms: _91  and  _92
REMARK   37  A    between atoms: _92  and  _93
REMARK   38  A    between atoms: _98  and  _100
REMARK   39  A    between atoms: _100  and  _101
REMARK   40  A    between atoms: _100  and  _103
REMARK   41  A    between atoms: _103  and  _104
REMARK   42  A    between atoms: _104  and  _105
REMARK   43  A    between atoms: _105  and  _106
REMARK   44  A    between atoms: _115  and  _117
REMARK   45  A    between atoms: _117  and  _118
REMARK   46  A    between atoms: _117  and  _120
REMARK   47  A    between atoms: _123  and  _125
REMARK   48  A    between atoms: _125  and  _126
REMARK   49  A    between atoms: _125  and  _128
REMARK   50  A    between atoms: _128  and  _129
REMARK   51  A    between atoms: _135  and  _137
REMARK   52  A    between atoms: _137  and  _138
REMARK   53  A    between atoms: _137  and  _140
REMARK   54  A    between atoms: _140  and  _141
REMARK   55  A    between atoms: _144  and  _146
REMARK   56  A    between atoms: _146  and  _147
REMARK   57  A    between atoms: _146  and  _149
REMARK   58  A    between atoms: _149  and  _150
REMARK   59  A    between atoms: _160  and  _162
REMARK   60  A    between atoms: _162  and  _163
REMARK   61  A    between atoms: _165  and  _167
REMARK   62  A    between atoms: _167  and  _168
REMARK   63  A    between atoms: _167  and  _170
REMARK   64  A    between atoms: _170  and  _171
REMARK   65  A    between atoms: _177  and  _179
REMARK   66  A    between atoms: _179  and  _180
REMARK   67  A    between atoms: _183  and  _185
REMARK   68  A    between atoms: _185  and  _186
REMARK   69  A    between atoms: _185  and  _188
REMARK   70  A    between atoms: _188  and  _189
REMARK   71  A    between atoms: _194  and  _195
REMARK   72  A    between atoms: _197  and  _199
REMARK   73  A    between atoms: _199  and  _200
REMARK   74  A    between atoms: _199  and  _202
REMARK   75  A    between atoms: _202  and  _203
REMARK   76  A    between atoms: _203  and  _204
REMARK   77  A    between atoms: _206  and  _208
REMARK   78  A    between atoms: _208  and  _209
REMARK   79  A    between atoms: _208  and  _211
REMARK   80  A    between atoms: _211  and  _212
REMARK   81  A    between atoms: _215  and  _217
REMARK   82  A    between atoms: _217  and  _218
REMARK   83  A    between atoms: _217  and  _220
REMARK   84  A    between atoms: _223  and  _225
REMARK   85  A    between atoms: _225  and  _226
REMARK   86  A    between atoms: _225  and  _228
REMARK   87  A    between atoms: _230  and  _232
REMARK   88  A    between atoms: _232  and  _233
REMARK   89  A    between atoms: _235  and  _237
REMARK   90  A    between atoms: _237  and  _238
REMARK   91  A    between atoms: _237  and  _240
REMARK   92  A    between atoms: _240  and  _241
REMARK   93  A    between atoms: _244  and  _246
REMARK   94  A    between atoms: _246  and  _247
REMARK   95  A    between atoms: _246  and  _249
REMARK   96  A    between atoms: _249  and  _250
REMARK   97  A    between atoms: _253  and  _255
REMARK   98  A    between atoms: _255  and  _256
REMARK   99  A    between atoms: _255  and  _258
REMARK  100  A    between atoms: _258  and  _259
REMARK  101  A    between atoms: _262  and  _264
REMARK  102  A    between atoms: _264  and  _265
REMARK  103  A    between atoms: _264  and  _267
REMARK  104  A    between atoms: _270  and  _272
REMARK  105  A    between atoms: _272  and  _273
REMARK  106  A    between atoms: _272  and  _275
REMARK  107  A    between atoms: _278  and  _280
REMARK  108  A    between atoms: _280  and  _281
REMARK  109  A    between atoms: _280  and  _283
REMARK  110  A    between atoms: _283  and  _284
REMARK  111  A    between atoms: _287  and  _289
REMARK  112  A    between atoms: _289  and  _290
REMARK  113  A    between atoms: _289  and  _292
REMARK  114  A    between atoms: _292  and  _293
REMARK  115  A    between atoms: _293  and  _294
REMARK  116  A    between atoms: _297  and  _299
REMARK  117  A    between atoms: _299  and  _300
REMARK  118  A    between atoms: _299  and  _302
REMARK  119  A    between atoms: _302  and  _303
REMARK  120  A    between atoms: _306  and  _308
REMARK  121  A    between atoms: _308  and  _309
REMARK  122  A    between atoms: _308  and  _311
REMARK  123  A    between atoms: _311  and  _312
REMARK  124  A    between atoms: _315  and  _317
REMARK  125  A    between atoms: _317  and  _318
REMARK  126  A    between atoms: _317  and  _320
REMARK  127  A    between atoms: _320  and  _321
REMARK  128  A    between atoms: _321  and  _322
REMARK  129  A    between atoms: _325  and  _327
REMARK  130  A    between atoms: _327  and  _328
REMARK  131  A    between atoms: _327  and  _330
REMARK  132  A    between atoms: _330  and  _331
REMARK  133  A    between atoms: _334  and  _336
REMARK  134  A    between atoms: _336  and  _337
REMARK  135  A    between atoms: _336  and  _339
REMARK  136  A    between atoms: _339  and  _340
REMARK  137  A    between atoms: _343  and  _345
REMARK  138  A    between atoms: _345  and  _346
REMARK  139  A    between atoms: _345  and  _348
REMARK  140  A    between atoms: _348  and  _349
REMARK  141  A    between atoms: _352  and  _354
REMARK  142  A    between atoms: _354  and  _355
REMARK  143  A    between atoms: _354  and  _357
REMARK  144  A    between atoms: _357  and  _358
REMARK  145  A    between atoms: _360  and  _362
REMARK  146  A    between atoms: _362  and  _363
REMARK  147  A    between atoms: _362  and  _365
REMARK  148  A    between atoms: _367  and  _369
REMARK  149  A    between atoms: _369  and  _370
REMARK  150  A    between atoms: _369  and  _372
REMARK  151  A    between atoms: _372  and  _373
REMARK  152  A    between atoms: _375  and  _377
REMARK  153  A    between atoms: _377  and  _378
REMARK  154  A    between atoms: _377  and  _380
REMARK  155  A    between atoms: _380  and  _381
REMARK  156  A    between atoms: _383  and  _385
REMARK  157  A    between atoms: _385  and  _386
REMARK  158  A    between atoms: _385  and  _388
REMARK  159  A    between atoms: _388  and  _389
REMARK  160  A    between atoms: _394  and  _396
REMARK  161  A    between atoms: _396  and  _397
REMARK  162  A    between atoms: _396  and  _399
REMARK  163  A    between atoms: _402  and  _404
REMARK  164  A    between atoms: _404  and  _405
REMARK  165  A    between atoms: _404  and  _407
REMARK  166  A    between atoms: _407  and  _408
REMARK  167  A    between atoms: _413  and  _414
REMARK  168  A    between atoms: _416  and  _418
REMARK  169  A    between atoms: _418  and  _419
REMARK  170  A    between atoms: _418  and  _421
REMARK  171  A    between atoms: _421  and  _422
REMARK  172  A    between atoms: _425  and  _427
REMARK  173  A    between atoms: _427  and  _428
REMARK  174  A    between atoms: _427  and  _430
REMARK  175  A    between atoms: _430  and  _431
REMARK  176  A    between atoms: _434  and  _436
REMARK  177  A    between atoms: _436  and  _437
REMARK  178  A    between atoms: _436  and  _439
REMARK  179  A    between atoms: _439  and  _440
REMARK  180  A    between atoms: _440  and  _441
REMARK  181  A    between atoms: _441  and  _442
REMARK  182  A    between atoms: _451  and  _453
REMARK  183  A    between atoms: _453  and  _454
REMARK  184  A    between atoms: _456  and  _458
REMARK  185  A    between atoms: _458  and  _459
REMARK  186  A    between atoms: _458  and  _461
REMARK  187  A    between atoms: _461  and  _462
REMARK  188  A    between atoms: _467  and  _469
REMARK  189  A    between atoms: _469  and  _470
REMARK  190  A    between atoms: _469  and  _472
REMARK  191  A    between atoms: _472  and  _473
REMARK  192  A    between atoms: _476  and  _478
REMARK  193  A    between atoms: _478  and  _479
REMARK  194  A    between atoms: _478  and  _481
REMARK  195  A    between atoms: _481  and  _482
REMARK  196  A    between atoms: _482  and  _483
REMARK  197  A    between atoms: _485  and  _487
REMARK  198  A    between atoms: _487  and  _488
REMARK  199  A    between atoms: _487  and  _490
REMARK  200  A    between atoms: _490  and  _491
REMARK  201  A    between atoms: _496  and  _497
REMARK  202  A    between atoms: _499  and  _501
REMARK  203  A    between atoms: _501  and  _502
REMARK  204  A    between atoms: _506  and  _507
REMARK  205  A    between atoms: _512  and  _514
REMARK  206  A    between atoms: _514  and  _515
REMARK  207  A    between atoms: _514  and  _517
REMARK  208  A    between atoms: _517  and  _518
REMARK  209  A    between atoms: _521  and  _523
REMARK  210  A    between atoms: _523  and  _524
REMARK  211  A    between atoms: _523  and  _526
REMARK  212  A    between atoms: _526  and  _527
REMARK  213  A    between atoms: _527  and  _528
REMARK  214  A    between atoms: _533  and  _535
REMARK  215  A    between atoms: _535  and  _536
REMARK  216  A    between atoms: _535  and  _538
REMARK  217  A    between atoms: _538  and  _539
REMARK  218  A    between atoms: _542  and  _544
REMARK  219  A    between atoms: _544  and  _545
REMARK  220  A    between atoms: _544  and  _547
REMARK  221  A    between atoms: _547  and  _548
REMARK  222  A    between atoms: _553  and  _554
REMARK  223  A    between atoms: _556  and  _558
REMARK  224  A    between atoms: _558  and  _559
REMARK  225  A    between atoms: _561  and  _563
REMARK  226  A    between atoms: _563  and  _564
REMARK  227  A    between atoms: _563  and  _566
REMARK  228  A    between atoms: _566  and  _567
REMARK  229  A    between atoms: _570  and  _572
REMARK  230  A    between atoms: _572  and  _573
REMARK  231  A    between atoms: _572  and  _575
REMARK  232  A    between atoms: _575  and  _576
REMARK  233  A    between atoms: _581  and  _583
REMARK  234  A    between atoms: _583  and  _584
REMARK  235  A    between atoms: _583  and  _586
REMARK  236  A    between atoms: _586  and  _587
REMARK  237  A    between atoms: _593  and  _595
REMARK  238  A    between atoms: _595  and  _596
REMARK  239  A    between atoms: _599  and  _601
REMARK  240  A    between atoms: _601  and  _602
REMARK  241  A    between atoms: _604  and  _606
REMARK  242  A    between atoms: _606  and  _607
REMARK  243  A    between atoms: _606  and  _609
REMARK  244  A    between atoms: _609  and  _610
REMARK  245  A    between atoms: _615  and  _616
REMARK                            x       y       z     vdW  Elec       q    Type
REMARK                         _______ _______ _______ _____ _____    ______ ____
ROOT
ATOM      1  O   HOH     1     -20.847  -0.226  13.183  0.00  0.00    +0.000 OA
ENDROOT
TORSDOF 0
