REMARK  Name = ../refined-set-2016/2qd8/2qd8_pocket.pdb
REMARK  231 active torsions:
REMARK  status: ('A' for Active; 'I' for Inactive)
REMARK    1  A    between atoms: _1  and  _3
REMARK    2  A    between atoms: _3  and  _4
REMARK    3  A    between atoms: _3  and  _6
REMARK    4  A    between atoms: _6  and  _7
REMARK    5  A    between atoms: _7  and  _8
REMARK    6  A    between atoms: _8  and  _9
REMARK    7  A    between atoms: _11  and  _15
REMARK    8  A    between atoms: _18  and  _20
REMARK    9  A    between atoms: _20  and  _21
REMARK   10  A    between atoms: _20  and  _23
REMARK   11  A    between atoms: _23  and  _24
REMARK   12  A    between atoms: _27  and  _29
REMARK   13  A    between atoms: _29  and  _30
REMARK   14  A    between atoms: _29  and  _32
REMARK   15  A    between atoms: _32  and  _33
REMARK   16  A    between atoms: _36  and  _38
REMARK   17  A    between atoms: _38  and  _39
REMARK   18  A    between atoms: _38  and  _41
REMARK   19  A    between atoms: _41  and  _42
REMARK   20  A    between atoms: _45  and  _47
REMARK   21  A    between atoms: _47  and  _48
REMARK   22  A    between atoms: _47  and  _50
REMARK   23  A    between atoms: _50  and  _51
REMARK   24  A    between atoms: _54  and  _56
REMARK   25  A    between atoms: _56  and  _57
REMARK   26  A    between atoms: _59  and  _61
REMARK   27  A    between atoms: _61  and  _62
REMARK   28  A    between atoms: _65  and  _67
REMARK   29  A    between atoms: _67  and  _68
REMARK   30  A    between atoms: _67  and  _70
REMARK   31  A    between atoms: _70  and  _71
REMARK   32  A    between atoms: _74  and  _76
REMARK   33  A    between atoms: _76  and  _77
REMARK   34  A    between atoms: _76  and  _79
REMARK   35  A    between atoms: _79  and  _80
REMARK   36  A    between atoms: _83  and  _85
REMARK   37  A    between atoms: _85  and  _86
REMARK   38  A    between atoms: _85  and  _88
REMARK   39  A    between atoms: _88  and  _89
REMARK   40  A    between atoms: _92  and  _94
REMARK   41  A    between atoms: _94  and  _95
REMARK   42  A    between atoms: _94  and  _97
REMARK   43  A    between atoms: _100  and  _102
REMARK   44  A    between atoms: _102  and  _103
REMARK   45  A    between atoms: _102  and  _105
REMARK   46  A    between atoms: _105  and  _106
REMARK   47  A    between atoms: _106  and  _107
REMARK   48  A    between atoms: _107  and  _108
REMARK   49  A    between atoms: _108  and  _109
REMARK   50  A    between atoms: _113  and  _115
REMARK   51  A    between atoms: _115  and  _116
REMARK   52  A    between atoms: _115  and  _118
REMARK   53  A    between atoms: _118  and  _119
REMARK   54  A    between atoms: _119  and  _120
REMARK   55  A    between atoms: _122  and  _124
REMARK   56  A    between atoms: _124  and  _125
REMARK   57  A    between atoms: _124  and  _127
REMARK   58  A    between atoms: _127  and  _128
REMARK   59  A    between atoms: _131  and  _133
REMARK   60  A    between atoms: _133  and  _134
REMARK   61  A    between atoms: _136  and  _138
REMARK   62  A    between atoms: _138  and  _139
REMARK   63  A    between atoms: _141  and  _143
REMARK   64  A    between atoms: _143  and  _144
REMARK   65  A    between atoms: _143  and  _146
REMARK   66  A    between atoms: _146  and  _147
REMARK   67  A    between atoms: _150  and  _152
REMARK   68  A    between atoms: _152  and  _153
REMARK   69  A    between atoms: _155  and  _157
REMARK   70  A    between atoms: _157  and  _158
REMARK   71  A    between atoms: _160  and  _162
REMARK   72  A    between atoms: _162  and  _163
REMARK   73  A    between atoms: _162  and  _165
REMARK   74  A    between atoms: _165  and  _166
REMARK   75  A    between atoms: _172  and  _174
REMARK   76  A    between atoms: _174  and  _175
REMARK   77  A    between atoms: _174  and  _177
REMARK   78  A    between atoms: _177  and  _178
REMARK   79  A    between atoms: _181  and  _183
REMARK   80  A    between atoms: _183  and  _184
REMARK   81  A    between atoms: _183  and  _186
REMARK   82  A    between atoms: _189  and  _191
REMARK   83  A    between atoms: _191  and  _192
REMARK   84  A    between atoms: _191  and  _194
REMARK   85  A    between atoms: _194  and  _195
REMARK   86  A    between atoms: _198  and  _200
REMARK   87  A    between atoms: _200  and  _201
REMARK   88  A    between atoms: _200  and  _203
REMARK   89  A    between atoms: _203  and  _204
REMARK   90  A    between atoms: _208  and  _209
REMARK   91  A    between atoms: _214  and  _216
REMARK   92  A    between atoms: _216  and  _217
REMARK   93  A    between atoms: _216  and  _219
REMARK   94  A    between atoms: _222  and  _224
REMARK   95  A    between atoms: _224  and  _225
REMARK   96  A    between atoms: _224  and  _227
REMARK   97  A    between atoms: _227  and  _228
REMARK   98  A    between atoms: _233  and  _235
REMARK   99  A    between atoms: _235  and  _236
REMARK  100  A    between atoms: _235  and  _238
REMARK  101  A    between atoms: _241  and  _243
REMARK  102  A    between atoms: _243  and  _244
REMARK  103  A    between atoms: _243  and  _246
REMARK  104  A    between atoms: _246  and  _247
REMARK  105  A    between atoms: _250  and  _252
REMARK  106  A    between atoms: _252  and  _253
REMARK  107  A    between atoms: _255  and  _257
REMARK  108  A    between atoms: _257  and  _258
REMARK  109  A    between atoms: _257  and  _260
REMARK  110  A    between atoms: _260  and  _261
REMARK  111  A    between atoms: _261  and  _262
REMARK  112  A    between atoms: _262  and  _263
REMARK  113  A    between atoms: _272  and  _274
REMARK  114  A    between atoms: _274  and  _275
REMARK  115  A    between atoms: _274  and  _277
REMARK  116  A    between atoms: _277  and  _278
REMARK  117  A    between atoms: _283  and  _285
REMARK  118  A    between atoms: _285  and  _286
REMARK  119  A    between atoms: _285  and  _288
REMARK  120  A    between atoms: _288  and  _289
REMARK  121  A    between atoms: _289  and  _290
REMARK  122  A    between atoms: _290  and  _291
REMARK  123  A    between atoms: _300  and  _302
REMARK  124  A    between atoms: _302  and  _303
REMARK  125  A    between atoms: _302  and  _305
REMARK  126  A    between atoms: _305  and  _306
REMARK  127  A    between atoms: _309  and  _311
REMARK  128  A    between atoms: _311  and  _312
REMARK  129  A    between atoms: _311  and  _314
REMARK  130  A    between atoms: _314  and  _315
REMARK  131  A    between atoms: _318  and  _320
REMARK  132  A    between atoms: _320  and  _321
REMARK  133  A    between atoms: _320  and  _323
REMARK  134  A    between atoms: _323  and  _324
REMARK  135  A    between atoms: _327  and  _329
REMARK  136  A    between atoms: _329  and  _330
REMARK  137  A    between atoms: _329  and  _332
REMARK  138  A    between atoms: _332  and  _333
REMARK  139  A    between atoms: _336  and  _338
REMARK  140  A    between atoms: _338  and  _339
REMARK  141  A    between atoms: _341  and  _343
REMARK  142  A    between atoms: _343  and  _344
REMARK  143  A    between atoms: _347  and  _349
REMARK  144  A    between atoms: _349  and  _350
REMARK  145  A    between atoms: _349  and  _352
REMARK  146  A    between atoms: _352  and  _353
REMARK  147  A    between atoms: _356  and  _358
REMARK  148  A    between atoms: _358  and  _359
REMARK  149  A    between atoms: _358  and  _361
REMARK  150  A    between atoms: _361  and  _362
REMARK  151  A    between atoms: _365  and  _367
REMARK  152  A    between atoms: _367  and  _368
REMARK  153  A    between atoms: _367  and  _370
REMARK  154  A    between atoms: _370  and  _371
REMARK  155  A    between atoms: _374  and  _376
REMARK  156  A    between atoms: _376  and  _377
REMARK  157  A    between atoms: _376  and  _379
REMARK  158  A    between atoms: _382  and  _384
REMARK  159  A    between atoms: _384  and  _385
REMARK  160  A    between atoms: _384  and  _387
REMARK  161  A    between atoms: _387  and  _388
REMARK  162  A    between atoms: _388  and  _389
REMARK  163  A    between atoms: _389  and  _390
REMARK  164  A    between atoms: _390  and  _391
REMARK  165  A    between atoms: _395  and  _397
REMARK  166  A    between atoms: _397  and  _398
REMARK  167  A    between atoms: _397  and  _400
REMARK  168  A    between atoms: _400  and  _401
REMARK  169  A    between atoms: _401  and  _402
REMARK  170  A    between atoms: _404  and  _406
REMARK  171  A    between atoms: _406  and  _407
REMARK  172  A    between atoms: _406  and  _409
REMARK  173  A    between atoms: _409  and  _410
REMARK  174  A    between atoms: _413  and  _415
REMARK  175  A    between atoms: _415  and  _416
REMARK  176  A    between atoms: _418  and  _420
REMARK  177  A    between atoms: _420  and  _421
REMARK  178  A    between atoms: _423  and  _425
REMARK  179  A    between atoms: _425  and  _426
REMARK  180  A    between atoms: _425  and  _428
REMARK  181  A    between atoms: _426  and  _427
REMARK  182  A    between atoms: _426  and  _432
REMARK  183  A    between atoms: _427  and  _592
REMARK  184  A    between atoms: _428  and  _429
REMARK  185  A    between atoms: _432  and  _434
REMARK  186  A    between atoms: _434  and  _435
REMARK  187  A    between atoms: _437  and  _439
REMARK  188  A    between atoms: _439  and  _440
REMARK  189  A    between atoms: _442  and  _444
REMARK  190  A    between atoms: _444  and  _445
REMARK  191  A    between atoms: _444  and  _447
REMARK  192  A    between atoms: _447  and  _448
REMARK  193  A    between atoms: _454  and  _456
REMARK  194  A    between atoms: _456  and  _457
REMARK  195  A    between atoms: _456  and  _459
REMARK  196  A    between atoms: _459  and  _460
REMARK  197  A    between atoms: _463  and  _465
REMARK  198  A    between atoms: _465  and  _466
REMARK  199  A    between atoms: _465  and  _468
REMARK  200  A    between atoms: _468  and  _469
REMARK  201  A    between atoms: _472  and  _474
REMARK  202  A    between atoms: _474  and  _475
REMARK  203  A    between atoms: _474  and  _477
REMARK  204  A    between atoms: _477  and  _478
REMARK  205  A    between atoms: _482  and  _483
REMARK  206  A    between atoms: _488  and  _490
REMARK  207  A    between atoms: _490  and  _491
REMARK  208  A    between atoms: _490  and  _493
REMARK  209  A    between atoms: _496  and  _498
REMARK  210  A    between atoms: _498  and  _499
REMARK  211  A    between atoms: _498  and  _501
REMARK  212  A    between atoms: _501  and  _502
REMARK  213  A    between atoms: _507  and  _509
REMARK  214  A    between atoms: _509  and  _510
REMARK  215  A    between atoms: _509  and  _512
REMARK  216  A    between atoms: _515  and  _517
REMARK  217  A    between atoms: _517  and  _518
REMARK  218  A    between atoms: _517  and  _520
REMARK  219  A    between atoms: _520  and  _521
REMARK  220  A    between atoms: _524  and  _526
REMARK  221  A    between atoms: _526  and  _527
REMARK  222  A    between atoms: _529  and  _531
REMARK  223  A    between atoms: _531  and  _532
REMARK  224  A    between atoms: _531  and  _534
REMARK  225  A    between atoms: _534  and  _535
REMARK  226  A    between atoms: _535  and  _536
REMARK  227  A    between atoms: _536  and  _537
REMARK  228  A    between atoms: _546  and  _548
REMARK  229  A    between atoms: _548  and  _549
REMARK  230  A    between atoms: _548  and  _551
REMARK  231  A    between atoms: _551  and  _552
REMARK                            x       y       z     vdW  Elec       q    Type
REMARK                         _______ _______ _______ _____ _____    ______ ____
ROOT
ATOM      1  N   UNK     1       6.580  20.736  15.126  0.00  0.00    -0.265 N 
ATOM      2  H   UNK     1       6.310  20.310  16.036  0.00  0.00    +0.259 HD
ATOM      3  C   UNK     1       7.471  20.090  14.381  0.00  0.00    +0.342 C 
ATOM      4  N   UNK     1       7.965  18.950  14.808  0.00  0.00    -0.292 N 
ATOM      5  H   UNK     1       7.658  18.560  15.722  0.00  0.00    +0.255 HD
ATOM      6  H   UNK     1       8.663  18.437  14.232  0.00  0.00    +0.255 HD
ENDROOT
BRANCH   3   7
ATOM      7  N   UNK     1       7.862  20.558  13.220  0.00  0.00    -0.238 NA
ATOM      8  O   UNK     1       8.781  21.395  13.832  0.00  0.00    -0.053 OA
ATOM      9  H   UNK     1       7.473  21.454  12.863  0.00  0.00    +0.254 HD
ATOM     10  H   UNK     1       8.561  20.033  12.656  0.00  0.00    +0.254 HD
ENDBRANCH   3   7
BRANCH   1  11
ATOM     11  C   UNK     1       5.958  21.992  14.760  0.00  0.00    +0.174 C 
BRANCH  11  12
ATOM     12  C   UNK     1       5.115  22.575  15.891  0.00  0.00    +0.045 C 
BRANCH  12  13
ATOM     13  C   UNK     1       4.571  23.960  15.565  0.00  0.00    +0.029 C 
BRANCH  13  14
ATOM     14  C   UNK     1       3.893  24.712  16.715  0.00  0.00    +0.133 C 
BRANCH  14  15
ATOM     15  N   UNK     1       2.673  24.052  17.194  0.00  0.00    -0.239 NA
ATOM     16  H   UNK     1       2.340  23.181  16.733  0.00  0.00    +0.142 HD
ENDBRANCH  14  15
BRANCH  14  17
ATOM     17  C   UNK     1       3.603  26.113  16.237  0.00  0.00    +0.224 C 
ATOM     18  O   UNK     1       2.596  26.257  15.521  0.00  0.00    -0.287 OA
ENDBRANCH  14  17
ENDBRANCH  13  14
ENDBRANCH  12  13
ENDBRANCH  11  12
ENDBRANCH   1  11
TORSDOF 7
REMARK  Name = ../refined-set-2016/2qd8/2qd8_pocket.pdb
REMARK  231 active torsions:
REMARK  status: ('A' for Active; 'I' for Inactive)
REMARK    1  A    between atoms: _1  and  _3
REMARK    2  A    between atoms: _3  and  _4
REMARK    3  A    between atoms: _3  and  _6
REMARK    4  A    between atoms: _6  and  _7
REMARK    5  A    between atoms: _7  and  _8
REMARK    6  A    between atoms: _8  and  _9
REMARK    7  A    between atoms: _11  and  _15
REMARK    8  A    between atoms: _18  and  _20
REMARK    9  A    between atoms: _20  and  _21
REMARK   10  A    between atoms: _20  and  _23
REMARK   11  A    between atoms: _23  and  _24
REMARK   12  A    between atoms: _27  and  _29
REMARK   13  A    between atoms: _29  and  _30
REMARK   14  A    between atoms: _29  and  _32
REMARK   15  A    between atoms: _32  and  _33
REMARK   16  A    between atoms: _36  and  _38
REMARK   17  A    between atoms: _38  and  _39
REMARK   18  A    between atoms: _38  and  _41
REMARK   19  A    between atoms: _41  and  _42
REMARK   20  A    between atoms: _45  and  _47
REMARK   21  A    between atoms: _47  and  _48
REMARK   22  A    between atoms: _47  and  _50
REMARK   23  A    between atoms: _50  and  _51
REMARK   24  A    between atoms: _54  and  _56
REMARK   25  A    between atoms: _56  and  _57
REMARK   26  A    between atoms: _59  and  _61
REMARK   27  A    between atoms: _61  and  _62
REMARK   28  A    between atoms: _65  and  _67
REMARK   29  A    between atoms: _67  and  _68
REMARK   30  A    between atoms: _67  and  _70
REMARK   31  A    between atoms: _70  and  _71
REMARK   32  A    between atoms: _74  and  _76
REMARK   33  A    between atoms: _76  and  _77
REMARK   34  A    between atoms: _76  and  _79
REMARK   35  A    between atoms: _79  and  _80
REMARK   36  A    between atoms: _83  and  _85
REMARK   37  A    between atoms: _85  and  _86
REMARK   38  A    between atoms: _85  and  _88
REMARK   39  A    between atoms: _88  and  _89
REMARK   40  A    between atoms: _92  and  _94
REMARK   41  A    between atoms: _94  and  _95
REMARK   42  A    between atoms: _94  and  _97
REMARK   43  A    between atoms: _100  and  _102
REMARK   44  A    between atoms: _102  and  _103
REMARK   45  A    between atoms: _102  and  _105
REMARK   46  A    between atoms: _105  and  _106
REMARK   47  A    between atoms: _106  and  _107
REMARK   48  A    between atoms: _107  and  _108
REMARK   49  A    between atoms: _108  and  _109
REMARK   50  A    between atoms: _113  and  _115
REMARK   51  A    between atoms: _115  and  _116
REMARK   52  A    between atoms: _115  and  _118
REMARK   53  A    between atoms: _118  and  _119
REMARK   54  A    between atoms: _119  and  _120
REMARK   55  A    between atoms: _122  and  _124
REMARK   56  A    between atoms: _124  and  _125
REMARK   57  A    between atoms: _124  and  _127
REMARK   58  A    between atoms: _127  and  _128
REMARK   59  A    between atoms: _131  and  _133
REMARK   60  A    between atoms: _133  and  _134
REMARK   61  A    between atoms: _136  and  _138
REMARK   62  A    between atoms: _138  and  _139
REMARK   63  A    between atoms: _141  and  _143
REMARK   64  A    between atoms: _143  and  _144
REMARK   65  A    between atoms: _143  and  _146
REMARK   66  A    between atoms: _146  and  _147
REMARK   67  A    between atoms: _150  and  _152
REMARK   68  A    between atoms: _152  and  _153
REMARK   69  A    between atoms: _155  and  _157
REMARK   70  A    between atoms: _157  and  _158
REMARK   71  A    between atoms: _160  and  _162
REMARK   72  A    between atoms: _162  and  _163
REMARK   73  A    between atoms: _162  and  _165
REMARK   74  A    between atoms: _165  and  _166
REMARK   75  A    between atoms: _172  and  _174
REMARK   76  A    between atoms: _174  and  _175
REMARK   77  A    between atoms: _174  and  _177
REMARK   78  A    between atoms: _177  and  _178
REMARK   79  A    between atoms: _181  and  _183
REMARK   80  A    between atoms: _183  and  _184
REMARK   81  A    between atoms: _183  and  _186
REMARK   82  A    between atoms: _189  and  _191
REMARK   83  A    between atoms: _191  and  _192
REMARK   84  A    between atoms: _191  and  _194
REMARK   85  A    between atoms: _194  and  _195
REMARK   86  A    between atoms: _198  and  _200
REMARK   87  A    between atoms: _200  and  _201
REMARK   88  A    between atoms: _200  and  _203
REMARK   89  A    between atoms: _203  and  _204
REMARK   90  A    between atoms: _208  and  _209
REMARK   91  A    between atoms: _214  and  _216
REMARK   92  A    between atoms: _216  and  _217
REMARK   93  A    between atoms: _216  and  _219
REMARK   94  A    between atoms: _222  and  _224
REMARK   95  A    between atoms: _224  and  _225
REMARK   96  A    between atoms: _224  and  _227
REMARK   97  A    between atoms: _227  and  _228
REMARK   98  A    between atoms: _233  and  _235
REMARK   99  A    between atoms: _235  and  _236
REMARK  100  A    between atoms: _235  and  _238
REMARK  101  A    between atoms: _241  and  _243
REMARK  102  A    between atoms: _243  and  _244
REMARK  103  A    between atoms: _243  and  _246
REMARK  104  A    between atoms: _246  and  _247
REMARK  105  A    between atoms: _250  and  _252
REMARK  106  A    between atoms: _252  and  _253
REMARK  107  A    between atoms: _255  and  _257
REMARK  108  A    between atoms: _257  and  _258
REMARK  109  A    between atoms: _257  and  _260
REMARK  110  A    between atoms: _260  and  _261
REMARK  111  A    between atoms: _261  and  _262
REMARK  112  A    between atoms: _262  and  _263
REMARK  113  A    between atoms: _272  and  _274
REMARK  114  A    between atoms: _274  and  _275
REMARK  115  A    between atoms: _274  and  _277
REMARK  116  A    between atoms: _277  and  _278
REMARK  117  A    between atoms: _283  and  _285
REMARK  118  A    between atoms: _285  and  _286
REMARK  119  A    between atoms: _285  and  _288
REMARK  120  A    between atoms: _288  and  _289
REMARK  121  A    between atoms: _289  and  _290
REMARK  122  A    between atoms: _290  and  _291
REMARK  123  A    between atoms: _300  and  _302
REMARK  124  A    between atoms: _302  and  _303
REMARK  125  A    between atoms: _302  and  _305
REMARK  126  A    between atoms: _305  and  _306
REMARK  127  A    between atoms: _309  and  _311
REMARK  128  A    between atoms: _311  and  _312
REMARK  129  A    between atoms: _311  and  _314
REMARK  130  A    between atoms: _314  and  _315
REMARK  131  A    between atoms: _318  and  _320
REMARK  132  A    between atoms: _320  and  _321
REMARK  133  A    between atoms: _320  and  _323
REMARK  134  A    between atoms: _323  and  _324
REMARK  135  A    between atoms: _327  and  _329
REMARK  136  A    between atoms: _329  and  _330
REMARK  137  A    between atoms: _329  and  _332
REMARK  138  A    between atoms: _332  and  _333
REMARK  139  A    between atoms: _336  and  _338
REMARK  140  A    between atoms: _338  and  _339
REMARK  141  A    between atoms: _341  and  _343
REMARK  142  A    between atoms: _343  and  _344
REMARK  143  A    between atoms: _347  and  _349
REMARK  144  A    between atoms: _349  and  _350
REMARK  145  A    between atoms: _349  and  _352
REMARK  146  A    between atoms: _352  and  _353
REMARK  147  A    between atoms: _356  and  _358
REMARK  148  A    between atoms: _358  and  _359
REMARK  149  A    between atoms: _358  and  _361
REMARK  150  A    between atoms: _361  and  _362
REMARK  151  A    between atoms: _365  and  _367
REMARK  152  A    between atoms: _367  and  _368
REMARK  153  A    between atoms: _367  and  _370
REMARK  154  A    between atoms: _370  and  _371
REMARK  155  A    between atoms: _374  and  _376
REMARK  156  A    between atoms: _376  and  _377
REMARK  157  A    between atoms: _376  and  _379
REMARK  158  A    between atoms: _382  and  _384
REMARK  159  A    between atoms: _384  and  _385
REMARK  160  A    between atoms: _384  and  _387
REMARK  161  A    between atoms: _387  and  _388
REMARK  162  A    between atoms: _388  and  _389
REMARK  163  A    between atoms: _389  and  _390
REMARK  164  A    between atoms: _390  and  _391
REMARK  165  A    between atoms: _395  and  _397
REMARK  166  A    between atoms: _397  and  _398
REMARK  167  A    between atoms: _397  and  _400
REMARK  168  A    between atoms: _400  and  _401
REMARK  169  A    between atoms: _401  and  _402
REMARK  170  A    between atoms: _404  and  _406
REMARK  171  A    between atoms: _406  and  _407
REMARK  172  A    between atoms: _406  and  _409
REMARK  173  A    between atoms: _409  and  _410
REMARK  174  A    between atoms: _413  and  _415
REMARK  175  A    between atoms: _415  and  _416
REMARK  176  A    between atoms: _418  and  _420
REMARK  177  A    between atoms: _420  and  _421
REMARK  178  A    between atoms: _423  and  _425
REMARK  179  A    between atoms: _425  and  _426
REMARK  180  A    between atoms: _425  and  _428
REMARK  181  A    between atoms: _426  and  _427
REMARK  182  A    between atoms: _426  and  _432
REMARK  183  A    between atoms: _427  and  _592
REMARK  184  A    between atoms: _428  and  _429
REMARK  185  A    between atoms: _432  and  _434
REMARK  186  A    between atoms: _434  and  _435
REMARK  187  A    between atoms: _437  and  _439
REMARK  188  A    between atoms: _439  and  _440
REMARK  189  A    between atoms: _442  and  _444
REMARK  190  A    between atoms: _444  and  _445
REMARK  191  A    between atoms: _444  and  _447
REMARK  192  A    between atoms: _447  and  _448
REMARK  193  A    between atoms: _454  and  _456
REMARK  194  A    between atoms: _456  and  _457
REMARK  195  A    between atoms: _456  and  _459
REMARK  196  A    between atoms: _459  and  _460
REMARK  197  A    between atoms: _463  and  _465
REMARK  198  A    between atoms: _465  and  _466
REMARK  199  A    between atoms: _465  and  _468
REMARK  200  A    between atoms: _468  and  _469
REMARK  201  A    between atoms: _472  and  _474
REMARK  202  A    between atoms: _474  and  _475
REMARK  203  A    between atoms: _474  and  _477
REMARK  204  A    between atoms: _477  and  _478
REMARK  205  A    between atoms: _482  and  _483
REMARK  206  A    between atoms: _488  and  _490
REMARK  207  A    between atoms: _490  and  _491
REMARK  208  A    between atoms: _490  and  _493
REMARK  209  A    between atoms: _496  and  _498
REMARK  210  A    between atoms: _498  and  _499
REMARK  211  A    between atoms: _498  and  _501
REMARK  212  A    between atoms: _501  and  _502
REMARK  213  A    between atoms: _507  and  _509
REMARK  214  A    between atoms: _509  and  _510
REMARK  215  A    between atoms: _509  and  _512
REMARK  216  A    between atoms: _515  and  _517
REMARK  217  A    between atoms: _517  and  _518
REMARK  218  A    between atoms: _517  and  _520
REMARK  219  A    between atoms: _520  and  _521
REMARK  220  A    between atoms: _524  and  _526
REMARK  221  A    between atoms: _526  and  _527
REMARK  222  A    between atoms: _529  and  _531
REMARK  223  A    between atoms: _531  and  _532
REMARK  224  A    between atoms: _531  and  _534
REMARK  225  A    between atoms: _534  and  _535
REMARK  226  A    between atoms: _535  and  _536
REMARK  227  A    between atoms: _536  and  _537
REMARK  228  A    between atoms: _546  and  _548
REMARK  229  A    between atoms: _548  and  _549
REMARK  230  A    between atoms: _548  and  _551
REMARK  231  A    between atoms: _551  and  _552
REMARK                            x       y       z     vdW  Elec       q    Type
REMARK                         _______ _______ _______ _____ _____    ______ ____
ROOT
ATOM      1  C   GLY A   5      16.861  28.276  19.698  0.00  0.00    +0.243 C 
ATOM      2  O   GLY A   5      17.942  27.663  19.832  0.00  0.00    -0.273 OA
ATOM      3  N   ALA A   6      16.577  28.961  18.604  0.00  0.00    -0.297 N 
ATOM      4  H   ALA A   6      15.660  29.449  18.562  0.00  0.00    +0.150 HD
ENDROOT
BRANCH   3   5
ATOM      5  CA  ALA A   6      17.465  29.078  17.451  0.00  0.00    +0.149 C 
ATOM      6  CB  ALA A   6      16.653  28.969  16.160  0.00  0.00    +0.031 C 
BRANCH   5   7
ATOM      7  C   ALA A   6      18.170  30.425  17.517  0.00  0.00    +0.241 C 
ATOM      8  N   ASP A   7      19.501  30.460  17.565  0.00  0.00    -0.297 N 
ATOM      9  H   ASP A   7      20.034  29.569  17.626  0.00  0.00    +0.150 HD
ATOM     10  O   ALA A   6      17.536  31.470  17.512  0.00  0.00    -0.273 OA
BRANCH   8  11
ATOM     11  CA  ASP A   7      20.222  31.725  17.533  0.00  0.00    +0.160 C 
BRANCH  11  12
ATOM     12  C   ASP A   7      20.028  32.401  16.173  0.00  0.00    +0.241 C 
ATOM     13  O   ASP A   7      19.952  33.636  16.092  0.00  0.00    -0.273 OA
ATOM     14  N   ASP A   8      20.027  31.557  15.137  0.00  0.00    -0.297 N 
ATOM     15  H   ASP A   8      19.979  30.537  15.336  0.00  0.00    +0.150 HD
BRANCH  14  16
ATOM     16  CA  ASP A   8      20.089  31.981  13.747  0.00  0.00    +0.160 C 
BRANCH  16  17
ATOM     17  C   ASP A   8      18.829  31.520  13.008  0.00  0.00    +0.241 C 
ATOM     18  O   ASP A   8      18.163  30.578  13.428  0.00  0.00    -0.273 OA
ATOM     19  N   THR A   9      18.549  32.178  11.898  0.00  0.00    -0.295 N 
ATOM     20  H   THR A   9      19.137  33.003  11.662  0.00  0.00    +0.150 HD
BRANCH  19  21
ATOM     21  CA  THR A   9      17.478  31.829  10.985  0.00  0.00    +0.176 C 
BRANCH  21  22
ATOM     22  C   THR A   9      17.978  30.877   9.938  0.00  0.00    +0.243 C 
ATOM     23  N   VAL A  10      17.315  29.737   9.763  0.00  0.00    -0.298 N 
ATOM     24  H   VAL A  10      16.424  29.605  10.283  0.00  0.00    +0.150 HD
ATOM     25  O   THR A   9      19.017  31.157   9.311  0.00  0.00    -0.273 OA
BRANCH  23  26
ATOM     26  CA  VAL A  10      17.760  28.667   8.891  0.00  0.00    +0.137 C 
BRANCH  26  27
ATOM     27  CB  VAL A  10      18.294  27.454   9.674  0.00  0.00    +0.026 C 
ATOM     28  CG2 VAL A  10      19.125  27.879  10.863  0.00  0.00    +0.002 C 
ATOM     29  CG1 VAL A  10      19.075  26.577   8.678  0.00  0.00    +0.002 C 
ENDBRANCH  26  27
BRANCH  26  30
ATOM     30  C   VAL A  10      16.595  28.239   7.987  0.00  0.00    +0.227 C 
ATOM     31  O   VAL A  10      15.540  27.869   8.477  0.00  0.00    -0.286 OA
ENDBRANCH  26  30
ENDBRANCH  23  26
ENDBRANCH  21  22
BRANCH  21  32
ATOM     32  CB  THR A   9      16.940  33.149  10.383  0.00  0.00    +0.137 C 
ATOM     33  CG2 THR A   9      15.909  32.915   9.281  0.00  0.00    +0.034 C 
BRANCH  32  34
ATOM     34  OG1 THR A   9      16.334  33.887  11.445  0.00  0.00    -0.382 OA
ATOM     35  HG1 THR A   9      17.010  34.074  12.143  0.00  0.00    +0.210 HD
ENDBRANCH  32  34
ENDBRANCH  21  32
ENDBRANCH  19  21
ENDBRANCH  16  17
BRANCH  16  36
ATOM     36  CB  ASP A   8      21.324  31.362  13.046  0.00  0.00    +0.143 C 
BRANCH  36  37
ATOM     37  CG  ASP A   8      22.653  31.634  13.740  0.00  0.00    +0.367 C 
ATOM     38  OD2 ASP A   8      22.758  32.772  14.279  0.00  0.00    -0.246 OA
ATOM     39  OD1 ASP A   8      23.532  30.759  13.698  0.00  0.00    -0.246 OA
ENDBRANCH  36  37
ENDBRANCH  16  36
ENDBRANCH  14  16
ENDBRANCH  11  12
BRANCH  11  40
ATOM     40  CB  ASP A   7      21.711  31.504  17.751  0.00  0.00    +0.143 C 
BRANCH  40  41
ATOM     41  CG  ASP A   7      22.150  30.920  19.058  0.00  0.00    +0.367 C 
ATOM     42  OD2 ASP A   7      21.453  31.034  20.080  0.00  0.00    -0.246 OA
ATOM     43  OD1 ASP A   7      23.245  30.372  19.085  0.00  0.00    -0.246 OA
ENDBRANCH  40  41
ENDBRANCH  11  40
ENDBRANCH   8  11
ENDBRANCH   5   7
ENDBRANCH   3   5
BRANCH   1  44
ATOM     44  CA  GLY A   5      15.863  28.232  20.834  0.00  0.00    +0.176 C 
BRANCH  44  47
ATOM     45  C   THR A   4      14.614  30.301  20.850  0.00  0.00    +0.243 C 
ATOM     46  O   THR A   4      15.511  30.919  21.406  0.00  0.00    -0.273 OA
ATOM     47  N   GLY A   5      14.652  28.998  20.559  0.00  0.00    -0.295 N 
ATOM     48  H   GLY A   5      13.823  28.532  20.139  0.00  0.00    +0.150 HD
BRANCH  45  49
ATOM     49  CA  THR A   4      13.343  31.079  20.495  0.00  0.00    +0.176 C 
BRANCH  49  51
ATOM     50  C   ASP A   3      12.919  30.242  18.263  0.00  0.00    +0.241 C 
ATOM     51  N   THR A   4      12.504  30.401  19.522  0.00  0.00    -0.295 N 
ATOM     52  H   THR A   4      11.573  30.037  19.808  0.00  0.00    +0.150 HD
ATOM     53  O   ASP A   3      14.041  30.620  17.897  0.00  0.00    -0.273 OA
BRANCH  50  54
ATOM     54  CA  ASP A   3      11.959  29.518  17.323  0.00  0.00    +0.160 C 
BRANCH  54  57
ATOM     55  C   LEU A   2       9.853  30.385  16.515  0.00  0.00    +0.241 C 
ATOM     56  O   LEU A   2       9.195  29.763  17.361  0.00  0.00    -0.273 OA
ATOM     57  N   ASP A   3      11.173  30.422  16.499  0.00  0.00    -0.297 N 
ATOM     58  H   ASP A   3      11.658  31.109  15.887  0.00  0.00    +0.150 HD
BRANCH  55  59
ATOM     59  CA  LEU A   2       9.124  31.056  15.374  0.00  0.00    +0.149 C 
BRANCH  59  61
ATOM     60  C   LEU A   1       9.322  29.349  13.644  0.00  0.00    +0.238 C 
ATOM     61  N   LEU A   2       8.558  30.022  14.507  0.00  0.00    -0.297 N 
ATOM     62  H   LEU A   2       7.542  29.808  14.564  0.00  0.00    +0.150 HD
ATOM     63  O   LEU A   1      10.488  29.629  13.433  0.00  0.00    -0.274 OA
BRANCH  60  64
ATOM     64  CA  LEU A   1       8.683  28.162  12.932  0.00  0.00    +0.145 C 
BRANCH  64  65
ATOM     65  N   LEU A   1       8.851  28.239  11.490  0.00  0.00    -0.238 NA
ATOM     66  H   LEU A   1       9.689  27.780  11.080  0.00  0.00    +0.142 HD
ENDBRANCH  64  65
BRANCH  64  67
ATOM     67  CB  LEU A   1       9.233  26.791  13.307  0.00  0.00    +0.026 C 
BRANCH  67  68
ATOM     68  CG  LEU A   1       9.178  26.293  14.727  0.00  0.00    +0.002 C 
ATOM     69  CD2 LEU A   1       7.806  25.981  15.221  0.00  0.00    +0.000 C 
ATOM     70  CD1 LEU A   1      10.029  25.012  14.789  0.00  0.00    +0.000 C 
ENDBRANCH  67  68
ENDBRANCH  64  67
ENDBRANCH  60  64
ENDBRANCH  59  61
BRANCH  59  71
ATOM     71  CB  LEU A   2       8.009  31.955  15.933  0.00  0.00    +0.029 C 
BRANCH  71  72
ATOM     72  CG  LEU A   2       7.214  32.711  14.880  0.00  0.00    +0.002 C 
ATOM     73  CD2 LEU A   2       6.204  33.602  15.595  0.00  0.00    +0.000 C 
ATOM     74  CD1 LEU A   2       8.075  33.522  13.937  0.00  0.00    +0.000 C 
ENDBRANCH  71  72
ENDBRANCH  59  71
ENDBRANCH  55  59
ENDBRANCH  54  57
BRANCH  54  75
ATOM     75  CB  ASP A   3      12.751  28.617  16.396  0.00  0.00    +0.143 C 
BRANCH  75  76
ATOM     76  CG  ASP A   3      13.428  27.497  17.102  0.00  0.00    +0.367 C 
ATOM     77  OD2 ASP A   3      13.423  27.485  18.357  0.00  0.00    -0.246 OA
ATOM     78  OD1 ASP A   3      13.989  26.595  16.458  0.00  0.00    -0.246 OA
ENDBRANCH  75  76
ENDBRANCH  54  75
ENDBRANCH  50  54
ENDBRANCH  49  51
BRANCH  49  79
ATOM     79  CB  THR A   4      12.557  31.375  21.777  0.00  0.00    +0.137 C 
ATOM     80  CG2 THR A   4      11.327  32.223  21.484  0.00  0.00    +0.034 C 
BRANCH  79  81
ATOM     81  OG1 THR A   4      12.079  30.146  22.355  0.00  0.00    -0.382 OA
ATOM     82  HG1 THR A   4      12.849  29.563  22.571  0.00  0.00    +0.210 HD
ENDBRANCH  79  81
ENDBRANCH  49  79
ENDBRANCH  45  49
ENDBRANCH  44  47
ENDBRANCH   1  44
TORSDOF 35
REMARK  Name = ../refined-set-2016/2qd8/2qd8_pocket.pdb
REMARK  231 active torsions:
REMARK  status: ('A' for Active; 'I' for Inactive)
REMARK    1  A    between atoms: _1  and  _3
REMARK    2  A    between atoms: _3  and  _4
REMARK    3  A    between atoms: _3  and  _6
REMARK    4  A    between atoms: _6  and  _7
REMARK    5  A    between atoms: _7  and  _8
REMARK    6  A    between atoms: _8  and  _9
REMARK    7  A    between atoms: _11  and  _15
REMARK    8  A    between atoms: _18  and  _20
REMARK    9  A    between atoms: _20  and  _21
REMARK   10  A    between atoms: _20  and  _23
REMARK   11  A    between atoms: _23  and  _24
REMARK   12  A    between atoms: _27  and  _29
REMARK   13  A    between atoms: _29  and  _30
REMARK   14  A    between atoms: _29  and  _32
REMARK   15  A    between atoms: _32  and  _33
REMARK   16  A    between atoms: _36  and  _38
REMARK   17  A    between atoms: _38  and  _39
REMARK   18  A    between atoms: _38  and  _41
REMARK   19  A    between atoms: _41  and  _42
REMARK   20  A    between atoms: _45  and  _47
REMARK   21  A    between atoms: _47  and  _48
REMARK   22  A    between atoms: _47  and  _50
REMARK   23  A    between atoms: _50  and  _51
REMARK   24  A    between atoms: _54  and  _56
REMARK   25  A    between atoms: _56  and  _57
REMARK   26  A    between atoms: _59  and  _61
REMARK   27  A    between atoms: _61  and  _62
REMARK   28  A    between atoms: _65  and  _67
REMARK   29  A    between atoms: _67  and  _68
REMARK   30  A    between atoms: _67  and  _70
REMARK   31  A    between atoms: _70  and  _71
REMARK   32  A    between atoms: _74  and  _76
REMARK   33  A    between atoms: _76  and  _77
REMARK   34  A    between atoms: _76  and  _79
REMARK   35  A    between atoms: _79  and  _80
REMARK   36  A    between atoms: _83  and  _85
REMARK   37  A    between atoms: _85  and  _86
REMARK   38  A    between atoms: _85  and  _88
REMARK   39  A    between atoms: _88  and  _89
REMARK   40  A    between atoms: _92  and  _94
REMARK   41  A    between atoms: _94  and  _95
REMARK   42  A    between atoms: _94  and  _97
REMARK   43  A    between atoms: _100  and  _102
REMARK   44  A    between atoms: _102  and  _103
REMARK   45  A    between atoms: _102  and  _105
REMARK   46  A    between atoms: _105  and  _106
REMARK   47  A    between atoms: _106  and  _107
REMARK   48  A    between atoms: _107  and  _108
REMARK   49  A    between atoms: _108  and  _109
REMARK   50  A    between atoms: _113  and  _115
REMARK   51  A    between atoms: _115  and  _116
REMARK   52  A    between atoms: _115  and  _118
REMARK   53  A    between atoms: _118  and  _119
REMARK   54  A    between atoms: _119  and  _120
REMARK   55  A    between atoms: _122  and  _124
REMARK   56  A    between atoms: _124  and  _125
REMARK   57  A    between atoms: _124  and  _127
REMARK   58  A    between atoms: _127  and  _128
REMARK   59  A    between atoms: _131  and  _133
REMARK   60  A    between atoms: _133  and  _134
REMARK   61  A    between atoms: _136  and  _138
REMARK   62  A    between atoms: _138  and  _139
REMARK   63  A    between atoms: _141  and  _143
REMARK   64  A    between atoms: _143  and  _144
REMARK   65  A    between atoms: _143  and  _146
REMARK   66  A    between atoms: _146  and  _147
REMARK   67  A    between atoms: _150  and  _152
REMARK   68  A    between atoms: _152  and  _153
REMARK   69  A    between atoms: _155  and  _157
REMARK   70  A    between atoms: _157  and  _158
REMARK   71  A    between atoms: _160  and  _162
REMARK   72  A    between atoms: _162  and  _163
REMARK   73  A    between atoms: _162  and  _165
REMARK   74  A    between atoms: _165  and  _166
REMARK   75  A    between atoms: _172  and  _174
REMARK   76  A    between atoms: _174  and  _175
REMARK   77  A    between atoms: _174  and  _177
REMARK   78  A    between atoms: _177  and  _178
REMARK   79  A    between atoms: _181  and  _183
REMARK   80  A    between atoms: _183  and  _184
REMARK   81  A    between atoms: _183  and  _186
REMARK   82  A    between atoms: _189  and  _191
REMARK   83  A    between atoms: _191  and  _192
REMARK   84  A    between atoms: _191  and  _194
REMARK   85  A    between atoms: _194  and  _195
REMARK   86  A    between atoms: _198  and  _200
REMARK   87  A    between atoms: _200  and  _201
REMARK   88  A    between atoms: _200  and  _203
REMARK   89  A    between atoms: _203  and  _204
REMARK   90  A    between atoms: _208  and  _209
REMARK   91  A    between atoms: _214  and  _216
REMARK   92  A    between atoms: _216  and  _217
REMARK   93  A    between atoms: _216  and  _219
REMARK   94  A    between atoms: _222  and  _224
REMARK   95  A    between atoms: _224  and  _225
REMARK   96  A    between atoms: _224  and  _227
REMARK   97  A    between atoms: _227  and  _228
REMARK   98  A    between atoms: _233  and  _235
REMARK   99  A    between atoms: _235  and  _236
REMARK  100  A    between atoms: _235  and  _238
REMARK  101  A    between atoms: _241  and  _243
REMARK  102  A    between atoms: _243  and  _244
REMARK  103  A    between atoms: _243  and  _246
REMARK  104  A    between atoms: _246  and  _247
REMARK  105  A    between atoms: _250  and  _252
REMARK  106  A    between atoms: _252  and  _253
REMARK  107  A    between atoms: _255  and  _257
REMARK  108  A    between atoms: _257  and  _258
REMARK  109  A    between atoms: _257  and  _260
REMARK  110  A    between atoms: _260  and  _261
REMARK  111  A    between atoms: _261  and  _262
REMARK  112  A    between atoms: _262  and  _263
REMARK  113  A    between atoms: _272  and  _274
REMARK  114  A    between atoms: _274  and  _275
REMARK  115  A    between atoms: _274  and  _277
REMARK  116  A    between atoms: _277  and  _278
REMARK  117  A    between atoms: _283  and  _285
REMARK  118  A    between atoms: _285  and  _286
REMARK  119  A    between atoms: _285  and  _288
REMARK  120  A    between atoms: _288  and  _289
REMARK  121  A    between atoms: _289  and  _290
REMARK  122  A    between atoms: _290  and  _291
REMARK  123  A    between atoms: _300  and  _302
REMARK  124  A    between atoms: _302  and  _303
REMARK  125  A    between atoms: _302  and  _305
REMARK  126  A    between atoms: _305  and  _306
REMARK  127  A    between atoms: _309  and  _311
REMARK  128  A    between atoms: _311  and  _312
REMARK  129  A    between atoms: _311  and  _314
REMARK  130  A    between atoms: _314  and  _315
REMARK  131  A    between atoms: _318  and  _320
REMARK  132  A    between atoms: _320  and  _321
REMARK  133  A    between atoms: _320  and  _323
REMARK  134  A    between atoms: _323  and  _324
REMARK  135  A    between atoms: _327  and  _329
REMARK  136  A    between atoms: _329  and  _330
REMARK  137  A    between atoms: _329  and  _332
REMARK  138  A    between atoms: _332  and  _333
REMARK  139  A    between atoms: _336  and  _338
REMARK  140  A    between atoms: _338  and  _339
REMARK  141  A    between atoms: _341  and  _343
REMARK  142  A    between atoms: _343  and  _344
REMARK  143  A    between atoms: _347  and  _349
REMARK  144  A    between atoms: _349  and  _350
REMARK  145  A    between atoms: _349  and  _352
REMARK  146  A    between atoms: _352  and  _353
REMARK  147  A    between atoms: _356  and  _358
REMARK  148  A    between atoms: _358  and  _359
REMARK  149  A    between atoms: _358  and  _361
REMARK  150  A    between atoms: _361  and  _362
REMARK  151  A    between atoms: _365  and  _367
REMARK  152  A    between atoms: _367  and  _368
REMARK  153  A    between atoms: _367  and  _370
REMARK  154  A    between atoms: _370  and  _371
REMARK  155  A    between atoms: _374  and  _376
REMARK  156  A    between atoms: _376  and  _377
REMARK  157  A    between atoms: _376  and  _379
REMARK  158  A    between atoms: _382  and  _384
REMARK  159  A    between atoms: _384  and  _385
REMARK  160  A    between atoms: _384  and  _387
REMARK  161  A    between atoms: _387  and  _388
REMARK  162  A    between atoms: _388  and  _389
REMARK  163  A    between atoms: _389  and  _390
REMARK  164  A    between atoms: _390  and  _391
REMARK  165  A    between atoms: _395  and  _397
REMARK  166  A    between atoms: _397  and  _398
REMARK  167  A    between atoms: _397  and  _400
REMARK  168  A    between atoms: _400  and  _401
REMARK  169  A    between atoms: _401  and  _402
REMARK  170  A    between atoms: _404  and  _406
REMARK  171  A    between atoms: _406  and  _407
REMARK  172  A    between atoms: _406  and  _409
REMARK  173  A    between atoms: _409  and  _410
REMARK  174  A    between atoms: _413  and  _415
REMARK  175  A    between atoms: _415  and  _416
REMARK  176  A    between atoms: _418  and  _420
REMARK  177  A    between atoms: _420  and  _421
REMARK  178  A    between atoms: _423  and  _425
REMARK  179  A    between atoms: _425  and  _426
REMARK  180  A    between atoms: _425  and  _428
REMARK  181  A    between atoms: _426  and  _427
REMARK  182  A    between atoms: _426  and  _432
REMARK  183  A    between atoms: _427  and  _592
REMARK  184  A    between atoms: _428  and  _429
REMARK  185  A    between atoms: _432  and  _434
REMARK  186  A    between atoms: _434  and  _435
REMARK  187  A    between atoms: _437  and  _439
REMARK  188  A    between atoms: _439  and  _440
REMARK  189  A    between atoms: _442  and  _444
REMARK  190  A    between atoms: _444  and  _445
REMARK  191  A    between atoms: _444  and  _447
REMARK  192  A    between atoms: _447  and  _448
REMARK  193  A    between atoms: _454  and  _456
REMARK  194  A    between atoms: _456  and  _457
REMARK  195  A    between atoms: _456  and  _459
REMARK  196  A    between atoms: _459  and  _460
REMARK  197  A    between atoms: _463  and  _465
REMARK  198  A    between atoms: _465  and  _466
REMARK  199  A    between atoms: _465  and  _468
REMARK  200  A    between atoms: _468  and  _469
REMARK  201  A    between atoms: _472  and  _474
REMARK  202  A    between atoms: _474  and  _475
REMARK  203  A    between atoms: _474  and  _477
REMARK  204  A    between atoms: _477  and  _478
REMARK  205  A    between atoms: _482  and  _483
REMARK  206  A    between atoms: _488  and  _490
REMARK  207  A    between atoms: _490  and  _491
REMARK  208  A    between atoms: _490  and  _493
REMARK  209  A    between atoms: _496  and  _498
REMARK  210  A    between atoms: _498  and  _499
REMARK  211  A    between atoms: _498  and  _501
REMARK  212  A    between atoms: _501  and  _502
REMARK  213  A    between atoms: _507  and  _509
REMARK  214  A    between atoms: _509  and  _510
REMARK  215  A    between atoms: _509  and  _512
REMARK  216  A    between atoms: _515  and  _517
REMARK  217  A    between atoms: _517  and  _518
REMARK  218  A    between atoms: _517  and  _520
REMARK  219  A    between atoms: _520  and  _521
REMARK  220  A    between atoms: _524  and  _526
REMARK  221  A    between atoms: _526  and  _527
REMARK  222  A    between atoms: _529  and  _531
REMARK  223  A    between atoms: _531  and  _532
REMARK  224  A    between atoms: _531  and  _534
REMARK  225  A    between atoms: _534  and  _535
REMARK  226  A    between atoms: _535  and  _536
REMARK  227  A    between atoms: _536  and  _537
REMARK  228  A    between atoms: _546  and  _548
REMARK  229  A    between atoms: _548  and  _549
REMARK  230  A    between atoms: _548  and  _551
REMARK  231  A    between atoms: _551  and  _552
REMARK                            x       y       z     vdW  Elec       q    Type
REMARK                         _______ _______ _______ _____ _____    ______ ____
ROOT
ATOM      1  C   GLY A   5      21.560  19.692  17.485  0.00  0.00    +0.243 C 
ATOM      2  N   ILE A   6      20.356  19.263  17.798  0.00  0.00    -0.297 N 
ATOM      3  H   ILE A   6      19.545  19.913  17.777  0.00  0.00    +0.150 HD
ATOM      4  O   GLY A   5      22.605  19.059  17.560  0.00  0.00    -0.273 OA
ENDROOT
BRANCH   1   5
ATOM      5  CA  GLY A   5      21.694  21.110  16.952  0.00  0.00    +0.176 C 
BRANCH   5   8
ATOM      6  C   GLY A   4      23.559  22.375  16.129  0.00  0.00    +0.243 C 
ATOM      7  O   GLY A   4      23.173  23.384  16.699  0.00  0.00    -0.273 OA
ATOM      8  N   GLY A   5      22.898  21.238  16.186  0.00  0.00    -0.295 N 
ATOM      9  H   GLY A   5      23.258  20.414  15.663  0.00  0.00    +0.150 HD
BRANCH   6  10
ATOM     10  CA  GLY A   4      24.799  22.319  15.277  0.00  0.00    +0.176 C 
BRANCH  10  12
ATOM     11  C   ILE A   3      25.123  23.577  13.199  0.00  0.00    +0.241 C 
ATOM     12  N   GLY A   4      25.046  23.534  14.546  0.00  0.00    -0.295 N 
ATOM     13  H   GLY A   4      25.171  24.418  15.079  0.00  0.00    +0.150 HD
ATOM     14  O   ILE A   3      24.891  22.624  12.473  0.00  0.00    -0.273 OA
BRANCH  11  15
ATOM     15  CA  ILE A   3      25.584  24.912  12.633  0.00  0.00    +0.149 C 
BRANCH  15  18
ATOM     16  C   MET A   2      27.625  25.195  11.325  0.00  0.00    +0.241 C 
ATOM     17  O   MET A   2      28.118  25.979  12.134  0.00  0.00    -0.273 OA
ATOM     18  N   ILE A   3      26.431  24.664  11.472  0.00  0.00    -0.297 N 
ATOM     19  H   ILE A   3      26.073  24.037  10.724  0.00  0.00    +0.150 HD
BRANCH  16  20
ATOM     20  CA  MET A   2      28.445  24.802  10.100  0.00  0.00    +0.149 C 
BRANCH  20  22
ATOM     21  C   LYS A   1      28.617  26.411   8.292  0.00  0.00    +0.238 C 
ATOM     22  N   MET A   2      29.010  25.997   9.495  0.00  0.00    -0.297 N 
ATOM     23  H   MET A   2      29.733  26.538  10.011  0.00  0.00    +0.150 HD
ATOM     24  O   LYS A   1      27.907  25.747   7.530  0.00  0.00    -0.274 OA
BRANCH  21  25
ATOM     25  CA  LYS A   1      29.059  27.819   7.879  0.00  0.00    +0.145 C 
BRANCH  25  26
ATOM     26  N   LYS A   1      29.176  27.863   6.445  0.00  0.00    -0.238 NA
ATOM     27  H   LYS A   1      28.552  27.249   5.884  0.00  0.00    +0.142 HD
ENDBRANCH  25  26
BRANCH  25  28
ATOM     28  CB  LYS A   1      28.068  28.885   8.347  0.00  0.00    +0.026 C 
BRANCH  28  29
ATOM     29  CG  LYS A   1      27.979  29.145   9.836  0.00  0.00    -0.000 C 
BRANCH  29  30
ATOM     30  CD  LYS A   1      26.975  30.242  10.135  0.00  0.00    -0.024 C 
BRANCH  30  31
ATOM     31  CE  LYS A   1      26.755  30.565  11.588  0.00  0.00    -0.086 C 
BRANCH  31  32
ATOM     32  NZ  LYS A   1      27.917  31.297  12.145  0.00  0.00    +0.380 N 
ATOM     33  HZ1 LYS A   1      27.743  31.509  13.148  0.00  0.00    -0.089 HD
ATOM     34  HZ2 LYS A   1      28.770  30.709  12.057  0.00  0.00    -0.089 HD
ATOM     35  HZ3 LYS A   1      28.050  32.185  11.620  0.00  0.00    -0.089 HD
ENDBRANCH  31  32
ENDBRANCH  30  31
ENDBRANCH  29  30
ENDBRANCH  28  29
ENDBRANCH  25  28
ENDBRANCH  21  25
ENDBRANCH  20  22
BRANCH  20  36
ATOM     36  CB  MET A   2      29.587  23.882  10.580  0.00  0.00    +0.041 C 
BRANCH  36  37
ATOM     37  CG  MET A   2      30.324  23.162   9.466  0.00  0.00    +0.060 C 
BRANCH  37  38
ATOM     38  SD  MET A   2      29.373  21.743   8.854  0.00  0.00    -0.139 S 
ATOM     39  CE  MET A   2      30.037  20.486  10.005  0.00  0.00    +0.069 C 
ENDBRANCH  37  38
ENDBRANCH  36  37
ENDBRANCH  20  36
ENDBRANCH  16  20
ENDBRANCH  15  18
BRANCH  15  40
ATOM     40  CB  ILE A   3      24.398  25.823  12.329  0.00  0.00    +0.027 C 
ATOM     41  CG2 ILE A   3      24.854  27.236  11.982  0.00  0.00    +0.002 C 
BRANCH  40  42
ATOM     42  CG1 ILE A   3      23.485  25.257  11.257  0.00  0.00    +0.002 C 
ATOM     43  CD1 ILE A   3      22.167  25.972  11.157  0.00  0.00    +0.000 C 
ENDBRANCH  40  42
ENDBRANCH  15  40
ENDBRANCH  11  15
ENDBRANCH  10  12
ENDBRANCH   6  10
ENDBRANCH   5   8
ENDBRANCH   1   5
BRANCH   2  44
ATOM     44  CA  ILE A   6      20.171  17.866  18.174  0.00  0.00    +0.149 C 
BRANCH  44  45
ATOM     45  C   ILE A   6      20.425  17.023  16.951  0.00  0.00    +0.241 C 
ATOM     46  N   GLY A   7      21.140  15.874  17.082  0.00  0.00    -0.295 N 
ATOM     47  H   GLY A   7      21.391  15.491  18.016  0.00  0.00    +0.150 HD
ATOM     48  O   ILE A   6      19.972  17.381  15.868  0.00  0.00    -0.273 OA
BRANCH  46  49
ATOM     49  CA  GLY A   7      21.531  15.217  15.871  0.00  0.00    +0.176 C 
BRANCH  49  50
ATOM     50  C   GLY A   7      22.882  15.660  15.325  0.00  0.00    +0.243 C 
ATOM     51  N   GLY A   8      23.495  16.781  15.641  0.00  0.00    -0.295 N 
ATOM     52  H   GLY A   8      23.043  17.443  16.303  0.00  0.00    +0.150 HD
ATOM     53  O   GLY A   7      23.379  14.835  14.570  0.00  0.00    -0.273 OA
BRANCH  51  54
ATOM     54  CA  GLY A   8      24.802  17.108  15.074  0.00  0.00    +0.176 C 
BRANCH  54  55
ATOM     55  C   GLY A   8      24.709  18.327  14.169  0.00  0.00    +0.243 C 
ATOM     56  O   GLY A   8      23.812  19.166  14.340  0.00  0.00    -0.273 OA
ATOM     57  N   PHE A   9      25.647  18.458  13.256  0.00  0.00    -0.297 N 
ATOM     58  H   PHE A   9      26.295  17.661  13.092  0.00  0.00    +0.150 HD
BRANCH  57  59
ATOM     59  CA  PHE A   9      25.818  19.658  12.471  0.00  0.00    +0.153 C 
BRANCH  59  60
ATOM     60  C   PHE A   9      25.377  19.513  11.031  0.00  0.00    +0.241 C 
ATOM     61  O   PHE A   9      25.436  18.406  10.484  0.00  0.00    -0.273 OA
ATOM     62  N   ILE A  10      24.982  20.602  10.416  0.00  0.00    -0.298 N 
ATOM     63  H   ILE A  10      24.799  21.454  10.984  0.00  0.00    +0.150 HD
BRANCH  62  64
ATOM     64  CA  ILE A  10      24.788  20.674   8.971  0.00  0.00    +0.137 C 
BRANCH  64  65
ATOM     65  CB  ILE A  10      23.317  20.872   8.578  0.00  0.00    +0.026 C 
ATOM     66  CG2 ILE A  10      22.511  19.628   8.974  0.00  0.00    +0.002 C 
BRANCH  65  67
ATOM     67  CG1 ILE A  10      22.686  22.161   9.111  0.00  0.00    +0.002 C 
ATOM     68  CD1 ILE A  10      21.322  22.425   8.474  0.00  0.00    +0.000 C 
ENDBRANCH  65  67
ENDBRANCH  64  65
BRANCH  64  69
ATOM     69  C   ILE A  10      25.599  21.854   8.421  0.00  0.00    +0.227 C 
ATOM     70  O   ILE A  10      25.837  22.837   9.131  0.00  0.00    -0.286 OA
ENDBRANCH  64  69
ENDBRANCH  62  64
ENDBRANCH  59  60
BRANCH  59  71
ATOM     71  CB  PHE A   9      27.294  20.052  12.437  0.00  0.00    +0.055 C 
BRANCH  71  72
ATOM     72  CG  PHE A   9      27.791  20.651  13.734  0.00  0.00    -0.020 A 
ATOM     73  CD2 PHE A   9      28.048  19.856  14.826  0.00  0.00    -0.004 A 
ATOM     74  CE2 PHE A   9      28.481  20.396  16.007  0.00  0.00    -0.000 A 
ATOM     75  CZ  PHE A   9      28.660  21.738  16.122  0.00  0.00    -0.000 A 
ATOM     76  CE1 PHE A   9      28.399  22.551  15.059  0.00  0.00    -0.000 A 
ATOM     77  CD1 PHE A   9      27.992  21.993  13.851  0.00  0.00    -0.004 A 
ENDBRANCH  71  72
ENDBRANCH  59  71
ENDBRANCH  57  59
ENDBRANCH  54  55
ENDBRANCH  51  54
ENDBRANCH  49  50
ENDBRANCH  46  49
ENDBRANCH  44  45
BRANCH  44  78
ATOM     78  CB  ILE A   6      18.773  17.621  18.768  0.00  0.00    +0.027 C 
ATOM     79  CG2 ILE A   6      18.362  16.161  18.659  0.00  0.00    +0.002 C 
BRANCH  78  80
ATOM     80  CG1 ILE A   6      18.606  17.956  20.254  0.00  0.00    +0.002 C 
ATOM     81  CD1 ILE A   6      17.235  17.998  20.802  0.00  0.00    +0.000 C 
ENDBRANCH  78  80
ENDBRANCH  44  78
ENDBRANCH   2  44
TORSDOF 36
REMARK  Name = ../refined-set-2016/2qd8/2qd8_pocket.pdb
REMARK  231 active torsions:
REMARK  status: ('A' for Active; 'I' for Inactive)
REMARK    1  A    between atoms: _1  and  _3
REMARK    2  A    between atoms: _3  and  _4
REMARK    3  A    between atoms: _3  and  _6
REMARK    4  A    between atoms: _6  and  _7
REMARK    5  A    between atoms: _7  and  _8
REMARK    6  A    between atoms: _8  and  _9
REMARK    7  A    between atoms: _11  and  _15
REMARK    8  A    between atoms: _18  and  _20
REMARK    9  A    between atoms: _20  and  _21
REMARK   10  A    between atoms: _20  and  _23
REMARK   11  A    between atoms: _23  and  _24
REMARK   12  A    between atoms: _27  and  _29
REMARK   13  A    between atoms: _29  and  _30
REMARK   14  A    between atoms: _29  and  _32
REMARK   15  A    between atoms: _32  and  _33
REMARK   16  A    between atoms: _36  and  _38
REMARK   17  A    between atoms: _38  and  _39
REMARK   18  A    between atoms: _38  and  _41
REMARK   19  A    between atoms: _41  and  _42
REMARK   20  A    between atoms: _45  and  _47
REMARK   21  A    between atoms: _47  and  _48
REMARK   22  A    between atoms: _47  and  _50
REMARK   23  A    between atoms: _50  and  _51
REMARK   24  A    between atoms: _54  and  _56
REMARK   25  A    between atoms: _56  and  _57
REMARK   26  A    between atoms: _59  and  _61
REMARK   27  A    between atoms: _61  and  _62
REMARK   28  A    between atoms: _65  and  _67
REMARK   29  A    between atoms: _67  and  _68
REMARK   30  A    between atoms: _67  and  _70
REMARK   31  A    between atoms: _70  and  _71
REMARK   32  A    between atoms: _74  and  _76
REMARK   33  A    between atoms: _76  and  _77
REMARK   34  A    between atoms: _76  and  _79
REMARK   35  A    between atoms: _79  and  _80
REMARK   36  A    between atoms: _83  and  _85
REMARK   37  A    between atoms: _85  and  _86
REMARK   38  A    between atoms: _85  and  _88
REMARK   39  A    between atoms: _88  and  _89
REMARK   40  A    between atoms: _92  and  _94
REMARK   41  A    between atoms: _94  and  _95
REMARK   42  A    between atoms: _94  and  _97
REMARK   43  A    between atoms: _100  and  _102
REMARK   44  A    between atoms: _102  and  _103
REMARK   45  A    between atoms: _102  and  _105
REMARK   46  A    between atoms: _105  and  _106
REMARK   47  A    between atoms: _106  and  _107
REMARK   48  A    between atoms: _107  and  _108
REMARK   49  A    between atoms: _108  and  _109
REMARK   50  A    between atoms: _113  and  _115
REMARK   51  A    between atoms: _115  and  _116
REMARK   52  A    between atoms: _115  and  _118
REMARK   53  A    between atoms: _118  and  _119
REMARK   54  A    between atoms: _119  and  _120
REMARK   55  A    between atoms: _122  and  _124
REMARK   56  A    between atoms: _124  and  _125
REMARK   57  A    between atoms: _124  and  _127
REMARK   58  A    between atoms: _127  and  _128
REMARK   59  A    between atoms: _131  and  _133
REMARK   60  A    between atoms: _133  and  _134
REMARK   61  A    between atoms: _136  and  _138
REMARK   62  A    between atoms: _138  and  _139
REMARK   63  A    between atoms: _141  and  _143
REMARK   64  A    between atoms: _143  and  _144
REMARK   65  A    between atoms: _143  and  _146
REMARK   66  A    between atoms: _146  and  _147
REMARK   67  A    between atoms: _150  and  _152
REMARK   68  A    between atoms: _152  and  _153
REMARK   69  A    between atoms: _155  and  _157
REMARK   70  A    between atoms: _157  and  _158
REMARK   71  A    between atoms: _160  and  _162
REMARK   72  A    between atoms: _162  and  _163
REMARK   73  A    between atoms: _162  and  _165
REMARK   74  A    between atoms: _165  and  _166
REMARK   75  A    between atoms: _172  and  _174
REMARK   76  A    between atoms: _174  and  _175
REMARK   77  A    between atoms: _174  and  _177
REMARK   78  A    between atoms: _177  and  _178
REMARK   79  A    between atoms: _181  and  _183
REMARK   80  A    between atoms: _183  and  _184
REMARK   81  A    between atoms: _183  and  _186
REMARK   82  A    between atoms: _189  and  _191
REMARK   83  A    between atoms: _191  and  _192
REMARK   84  A    between atoms: _191  and  _194
REMARK   85  A    between atoms: _194  and  _195
REMARK   86  A    between atoms: _198  and  _200
REMARK   87  A    between atoms: _200  and  _201
REMARK   88  A    between atoms: _200  and  _203
REMARK   89  A    between atoms: _203  and  _204
REMARK   90  A    between atoms: _208  and  _209
REMARK   91  A    between atoms: _214  and  _216
REMARK   92  A    between atoms: _216  and  _217
REMARK   93  A    between atoms: _216  and  _219
REMARK   94  A    between atoms: _222  and  _224
REMARK   95  A    between atoms: _224  and  _225
REMARK   96  A    between atoms: _224  and  _227
REMARK   97  A    between atoms: _227  and  _228
REMARK   98  A    between atoms: _233  and  _235
REMARK   99  A    between atoms: _235  and  _236
REMARK  100  A    between atoms: _235  and  _238
REMARK  101  A    between atoms: _241  and  _243
REMARK  102  A    between atoms: _243  and  _244
REMARK  103  A    between atoms: _243  and  _246
REMARK  104  A    between atoms: _246  and  _247
REMARK  105  A    between atoms: _250  and  _252
REMARK  106  A    between atoms: _252  and  _253
REMARK  107  A    between atoms: _255  and  _257
REMARK  108  A    between atoms: _257  and  _258
REMARK  109  A    between atoms: _257  and  _260
REMARK  110  A    between atoms: _260  and  _261
REMARK  111  A    between atoms: _261  and  _262
REMARK  112  A    between atoms: _262  and  _263
REMARK  113  A    between atoms: _272  and  _274
REMARK  114  A    between atoms: _274  and  _275
REMARK  115  A    between atoms: _274  and  _277
REMARK  116  A    between atoms: _277  and  _278
REMARK  117  A    between atoms: _283  and  _285
REMARK  118  A    between atoms: _285  and  _286
REMARK  119  A    between atoms: _285  and  _288
REMARK  120  A    between atoms: _288  and  _289
REMARK  121  A    between atoms: _289  and  _290
REMARK  122  A    between atoms: _290  and  _291
REMARK  123  A    between atoms: _300  and  _302
REMARK  124  A    between atoms: _302  and  _303
REMARK  125  A    between atoms: _302  and  _305
REMARK  126  A    between atoms: _305  and  _306
REMARK  127  A    between atoms: _309  and  _311
REMARK  128  A    between atoms: _311  and  _312
REMARK  129  A    between atoms: _311  and  _314
REMARK  130  A    between atoms: _314  and  _315
REMARK  131  A    between atoms: _318  and  _320
REMARK  132  A    between atoms: _320  and  _321
REMARK  133  A    between atoms: _320  and  _323
REMARK  134  A    between atoms: _323  and  _324
REMARK  135  A    between atoms: _327  and  _329
REMARK  136  A    between atoms: _329  and  _330
REMARK  137  A    between atoms: _329  and  _332
REMARK  138  A    between atoms: _332  and  _333
REMARK  139  A    between atoms: _336  and  _338
REMARK  140  A    between atoms: _338  and  _339
REMARK  141  A    between atoms: _341  and  _343
REMARK  142  A    between atoms: _343  and  _344
REMARK  143  A    between atoms: _347  and  _349
REMARK  144  A    between atoms: _349  and  _350
REMARK  145  A    between atoms: _349  and  _352
REMARK  146  A    between atoms: _352  and  _353
REMARK  147  A    between atoms: _356  and  _358
REMARK  148  A    between atoms: _358  and  _359
REMARK  149  A    between atoms: _358  and  _361
REMARK  150  A    between atoms: _361  and  _362
REMARK  151  A    between atoms: _365  and  _367
REMARK  152  A    between atoms: _367  and  _368
REMARK  153  A    between atoms: _367  and  _370
REMARK  154  A    between atoms: _370  and  _371
REMARK  155  A    between atoms: _374  and  _376
REMARK  156  A    between atoms: _376  and  _377
REMARK  157  A    between atoms: _376  and  _379
REMARK  158  A    between atoms: _382  and  _384
REMARK  159  A    between atoms: _384  and  _385
REMARK  160  A    between atoms: _384  and  _387
REMARK  161  A    between atoms: _387  and  _388
REMARK  162  A    between atoms: _388  and  _389
REMARK  163  A    between atoms: _389  and  _390
REMARK  164  A    between atoms: _390  and  _391
REMARK  165  A    between atoms: _395  and  _397
REMARK  166  A    between atoms: _397  and  _398
REMARK  167  A    between atoms: _397  and  _400
REMARK  168  A    between atoms: _400  and  _401
REMARK  169  A    between atoms: _401  and  _402
REMARK  170  A    between atoms: _404  and  _406
REMARK  171  A    between atoms: _406  and  _407
REMARK  172  A    between atoms: _406  and  _409
REMARK  173  A    between atoms: _409  and  _410
REMARK  174  A    between atoms: _413  and  _415
REMARK  175  A    between atoms: _415  and  _416
REMARK  176  A    between atoms: _418  and  _420
REMARK  177  A    between atoms: _420  and  _421
REMARK  178  A    between atoms: _423  and  _425
REMARK  179  A    between atoms: _425  and  _426
REMARK  180  A    between atoms: _425  and  _428
REMARK  181  A    between atoms: _426  and  _427
REMARK  182  A    between atoms: _426  and  _432
REMARK  183  A    between atoms: _427  and  _592
REMARK  184  A    between atoms: _428  and  _429
REMARK  185  A    between atoms: _432  and  _434
REMARK  186  A    between atoms: _434  and  _435
REMARK  187  A    between atoms: _437  and  _439
REMARK  188  A    between atoms: _439  and  _440
REMARK  189  A    between atoms: _442  and  _444
REMARK  190  A    between atoms: _444  and  _445
REMARK  191  A    between atoms: _444  and  _447
REMARK  192  A    between atoms: _447  and  _448
REMARK  193  A    between atoms: _454  and  _456
REMARK  194  A    between atoms: _456  and  _457
REMARK  195  A    between atoms: _456  and  _459
REMARK  196  A    between atoms: _459  and  _460
REMARK  197  A    between atoms: _463  and  _465
REMARK  198  A    between atoms: _465  and  _466
REMARK  199  A    between atoms: _465  and  _468
REMARK  200  A    between atoms: _468  and  _469
REMARK  201  A    between atoms: _472  and  _474
REMARK  202  A    between atoms: _474  and  _475
REMARK  203  A    between atoms: _474  and  _477
REMARK  204  A    between atoms: _477  and  _478
REMARK  205  A    between atoms: _482  and  _483
REMARK  206  A    between atoms: _488  and  _490
REMARK  207  A    between atoms: _490  and  _491
REMARK  208  A    between atoms: _490  and  _493
REMARK  209  A    between atoms: _496  and  _498
REMARK  210  A    between atoms: _498  and  _499
REMARK  211  A    between atoms: _498  and  _501
REMARK  212  A    between atoms: _501  and  _502
REMARK  213  A    between atoms: _507  and  _509
REMARK  214  A    between atoms: _509  and  _510
REMARK  215  A    between atoms: _509  and  _512
REMARK  216  A    between atoms: _515  and  _517
REMARK  217  A    between atoms: _517  and  _518
REMARK  218  A    between atoms: _517  and  _520
REMARK  219  A    between atoms: _520  and  _521
REMARK  220  A    between atoms: _524  and  _526
REMARK  221  A    between atoms: _526  and  _527
REMARK  222  A    between atoms: _529  and  _531
REMARK  223  A    between atoms: _531  and  _532
REMARK  224  A    between atoms: _531  and  _534
REMARK  225  A    between atoms: _534  and  _535
REMARK  226  A    between atoms: _535  and  _536
REMARK  227  A    between atoms: _536  and  _537
REMARK  228  A    between atoms: _546  and  _548
REMARK  229  A    between atoms: _548  and  _549
REMARK  230  A    between atoms: _548  and  _551
REMARK  231  A    between atoms: _551  and  _552
REMARK                            x       y       z     vdW  Elec       q    Type
REMARK                         _______ _______ _______ _____ _____    ______ ____
ROOT
ATOM      1  CA  VAL A   1      24.795  25.949   5.372  0.00  0.00    +0.133 C 
ENDROOT
BRANCH   1   2
ATOM      2  CB  VAL A   1      23.922  26.577   6.462  0.00  0.00    +0.023 C 
ATOM      3  CG2 VAL A   1      24.759  27.324   7.480  0.00  0.00    +0.002 C 
ATOM      4  CG1 VAL A   1      23.100  25.490   7.139  0.00  0.00    +0.002 C 
ENDBRANCH   1   2
BRANCH   1   5
ATOM      5  N   VAL A   1      25.709  24.978   5.960  0.00  0.00    -0.239 NA
ATOM      6  H   VAL A   1      26.512  25.324   6.522  0.00  0.00    +0.142 HD
ENDBRANCH   1   5
BRANCH   1   7
ATOM      7  C   VAL A   1      25.581  27.027   4.629  0.00  0.00    +0.224 C 
ATOM      8  O   VAL A   1      26.778  27.174   4.785  0.00  0.00    -0.287 OA
ENDBRANCH   1   7
TORSDOF 3
REMARK  Name = ../refined-set-2016/2qd8/2qd8_pocket.pdb
REMARK  231 active torsions:
REMARK  status: ('A' for Active; 'I' for Inactive)
REMARK    1  A    between atoms: _1  and  _3
REMARK    2  A    between atoms: _3  and  _4
REMARK    3  A    between atoms: _3  and  _6
REMARK    4  A    between atoms: _6  and  _7
REMARK    5  A    between atoms: _7  and  _8
REMARK    6  A    between atoms: _8  and  _9
REMARK    7  A    between atoms: _11  and  _15
REMARK    8  A    between atoms: _18  and  _20
REMARK    9  A    between atoms: _20  and  _21
REMARK   10  A    between atoms: _20  and  _23
REMARK   11  A    between atoms: _23  and  _24
REMARK   12  A    between atoms: _27  and  _29
REMARK   13  A    between atoms: _29  and  _30
REMARK   14  A    between atoms: _29  and  _32
REMARK   15  A    between atoms: _32  and  _33
REMARK   16  A    between atoms: _36  and  _38
REMARK   17  A    between atoms: _38  and  _39
REMARK   18  A    between atoms: _38  and  _41
REMARK   19  A    between atoms: _41  and  _42
REMARK   20  A    between atoms: _45  and  _47
REMARK   21  A    between atoms: _47  and  _48
REMARK   22  A    between atoms: _47  and  _50
REMARK   23  A    between atoms: _50  and  _51
REMARK   24  A    between atoms: _54  and  _56
REMARK   25  A    between atoms: _56  and  _57
REMARK   26  A    between atoms: _59  and  _61
REMARK   27  A    between atoms: _61  and  _62
REMARK   28  A    between atoms: _65  and  _67
REMARK   29  A    between atoms: _67  and  _68
REMARK   30  A    between atoms: _67  and  _70
REMARK   31  A    between atoms: _70  and  _71
REMARK   32  A    between atoms: _74  and  _76
REMARK   33  A    between atoms: _76  and  _77
REMARK   34  A    between atoms: _76  and  _79
REMARK   35  A    between atoms: _79  and  _80
REMARK   36  A    between atoms: _83  and  _85
REMARK   37  A    between atoms: _85  and  _86
REMARK   38  A    between atoms: _85  and  _88
REMARK   39  A    between atoms: _88  and  _89
REMARK   40  A    between atoms: _92  and  _94
REMARK   41  A    between atoms: _94  and  _95
REMARK   42  A    between atoms: _94  and  _97
REMARK   43  A    between atoms: _100  and  _102
REMARK   44  A    between atoms: _102  and  _103
REMARK   45  A    between atoms: _102  and  _105
REMARK   46  A    between atoms: _105  and  _106
REMARK   47  A    between atoms: _106  and  _107
REMARK   48  A    between atoms: _107  and  _108
REMARK   49  A    between atoms: _108  and  _109
REMARK   50  A    between atoms: _113  and  _115
REMARK   51  A    between atoms: _115  and  _116
REMARK   52  A    between atoms: _115  and  _118
REMARK   53  A    between atoms: _118  and  _119
REMARK   54  A    between atoms: _119  and  _120
REMARK   55  A    between atoms: _122  and  _124
REMARK   56  A    between atoms: _124  and  _125
REMARK   57  A    between atoms: _124  and  _127
REMARK   58  A    between atoms: _127  and  _128
REMARK   59  A    between atoms: _131  and  _133
REMARK   60  A    between atoms: _133  and  _134
REMARK   61  A    between atoms: _136  and  _138
REMARK   62  A    between atoms: _138  and  _139
REMARK   63  A    between atoms: _141  and  _143
REMARK   64  A    between atoms: _143  and  _144
REMARK   65  A    between atoms: _143  and  _146
REMARK   66  A    between atoms: _146  and  _147
REMARK   67  A    between atoms: _150  and  _152
REMARK   68  A    between atoms: _152  and  _153
REMARK   69  A    between atoms: _155  and  _157
REMARK   70  A    between atoms: _157  and  _158
REMARK   71  A    between atoms: _160  and  _162
REMARK   72  A    between atoms: _162  and  _163
REMARK   73  A    between atoms: _162  and  _165
REMARK   74  A    between atoms: _165  and  _166
REMARK   75  A    between atoms: _172  and  _174
REMARK   76  A    between atoms: _174  and  _175
REMARK   77  A    between atoms: _174  and  _177
REMARK   78  A    between atoms: _177  and  _178
REMARK   79  A    between atoms: _181  and  _183
REMARK   80  A    between atoms: _183  and  _184
REMARK   81  A    between atoms: _183  and  _186
REMARK   82  A    between atoms: _189  and  _191
REMARK   83  A    between atoms: _191  and  _192
REMARK   84  A    between atoms: _191  and  _194
REMARK   85  A    between atoms: _194  and  _195
REMARK   86  A    between atoms: _198  and  _200
REMARK   87  A    between atoms: _200  and  _201
REMARK   88  A    between atoms: _200  and  _203
REMARK   89  A    between atoms: _203  and  _204
REMARK   90  A    between atoms: _208  and  _209
REMARK   91  A    between atoms: _214  and  _216
REMARK   92  A    between atoms: _216  and  _217
REMARK   93  A    between atoms: _216  and  _219
REMARK   94  A    between atoms: _222  and  _224
REMARK   95  A    between atoms: _224  and  _225
REMARK   96  A    between atoms: _224  and  _227
REMARK   97  A    between atoms: _227  and  _228
REMARK   98  A    between atoms: _233  and  _235
REMARK   99  A    between atoms: _235  and  _236
REMARK  100  A    between atoms: _235  and  _238
REMARK  101  A    between atoms: _241  and  _243
REMARK  102  A    between atoms: _243  and  _244
REMARK  103  A    between atoms: _243  and  _246
REMARK  104  A    between atoms: _246  and  _247
REMARK  105  A    between atoms: _250  and  _252
REMARK  106  A    between atoms: _252  and  _253
REMARK  107  A    between atoms: _255  and  _257
REMARK  108  A    between atoms: _257  and  _258
REMARK  109  A    between atoms: _257  and  _260
REMARK  110  A    between atoms: _260  and  _261
REMARK  111  A    between atoms: _261  and  _262
REMARK  112  A    between atoms: _262  and  _263
REMARK  113  A    between atoms: _272  and  _274
REMARK  114  A    between atoms: _274  and  _275
REMARK  115  A    between atoms: _274  and  _277
REMARK  116  A    between atoms: _277  and  _278
REMARK  117  A    between atoms: _283  and  _285
REMARK  118  A    between atoms: _285  and  _286
REMARK  119  A    between atoms: _285  and  _288
REMARK  120  A    between atoms: _288  and  _289
REMARK  121  A    between atoms: _289  and  _290
REMARK  122  A    between atoms: _290  and  _291
REMARK  123  A    between atoms: _300  and  _302
REMARK  124  A    between atoms: _302  and  _303
REMARK  125  A    between atoms: _302  and  _305
REMARK  126  A    between atoms: _305  and  _306
REMARK  127  A    between atoms: _309  and  _311
REMARK  128  A    between atoms: _311  and  _312
REMARK  129  A    between atoms: _311  and  _314
REMARK  130  A    between atoms: _314  and  _315
REMARK  131  A    between atoms: _318  and  _320
REMARK  132  A    between atoms: _320  and  _321
REMARK  133  A    between atoms: _320  and  _323
REMARK  134  A    between atoms: _323  and  _324
REMARK  135  A    between atoms: _327  and  _329
REMARK  136  A    between atoms: _329  and  _330
REMARK  137  A    between atoms: _329  and  _332
REMARK  138  A    between atoms: _332  and  _333
REMARK  139  A    between atoms: _336  and  _338
REMARK  140  A    between atoms: _338  and  _339
REMARK  141  A    between atoms: _341  and  _343
REMARK  142  A    between atoms: _343  and  _344
REMARK  143  A    between atoms: _347  and  _349
REMARK  144  A    between atoms: _349  and  _350
REMARK  145  A    between atoms: _349  and  _352
REMARK  146  A    between atoms: _352  and  _353
REMARK  147  A    between atoms: _356  and  _358
REMARK  148  A    between atoms: _358  and  _359
REMARK  149  A    between atoms: _358  and  _361
REMARK  150  A    between atoms: _361  and  _362
REMARK  151  A    between atoms: _365  and  _367
REMARK  152  A    between atoms: _367  and  _368
REMARK  153  A    between atoms: _367  and  _370
REMARK  154  A    between atoms: _370  and  _371
REMARK  155  A    between atoms: _374  and  _376
REMARK  156  A    between atoms: _376  and  _377
REMARK  157  A    between atoms: _376  and  _379
REMARK  158  A    between atoms: _382  and  _384
REMARK  159  A    between atoms: _384  and  _385
REMARK  160  A    between atoms: _384  and  _387
REMARK  161  A    between atoms: _387  and  _388
REMARK  162  A    between atoms: _388  and  _389
REMARK  163  A    between atoms: _389  and  _390
REMARK  164  A    between atoms: _390  and  _391
REMARK  165  A    between atoms: _395  and  _397
REMARK  166  A    between atoms: _397  and  _398
REMARK  167  A    between atoms: _397  and  _400
REMARK  168  A    between atoms: _400  and  _401
REMARK  169  A    between atoms: _401  and  _402
REMARK  170  A    between atoms: _404  and  _406
REMARK  171  A    between atoms: _406  and  _407
REMARK  172  A    between atoms: _406  and  _409
REMARK  173  A    between atoms: _409  and  _410
REMARK  174  A    between atoms: _413  and  _415
REMARK  175  A    between atoms: _415  and  _416
REMARK  176  A    between atoms: _418  and  _420
REMARK  177  A    between atoms: _420  and  _421
REMARK  178  A    between atoms: _423  and  _425
REMARK  179  A    between atoms: _425  and  _426
REMARK  180  A    between atoms: _425  and  _428
REMARK  181  A    between atoms: _426  and  _427
REMARK  182  A    between atoms: _426  and  _432
REMARK  183  A    between atoms: _427  and  _592
REMARK  184  A    between atoms: _428  and  _429
REMARK  185  A    between atoms: _432  and  _434
REMARK  186  A    between atoms: _434  and  _435
REMARK  187  A    between atoms: _437  and  _439
REMARK  188  A    between atoms: _439  and  _440
REMARK  189  A    between atoms: _442  and  _444
REMARK  190  A    between atoms: _444  and  _445
REMARK  191  A    between atoms: _444  and  _447
REMARK  192  A    between atoms: _447  and  _448
REMARK  193  A    between atoms: _454  and  _456
REMARK  194  A    between atoms: _456  and  _457
REMARK  195  A    between atoms: _456  and  _459
REMARK  196  A    between atoms: _459  and  _460
REMARK  197  A    between atoms: _463  and  _465
REMARK  198  A    between atoms: _465  and  _466
REMARK  199  A    between atoms: _465  and  _468
REMARK  200  A    between atoms: _468  and  _469
REMARK  201  A    between atoms: _472  and  _474
REMARK  202  A    between atoms: _474  and  _475
REMARK  203  A    between atoms: _474  and  _477
REMARK  204  A    between atoms: _477  and  _478
REMARK  205  A    between atoms: _482  and  _483
REMARK  206  A    between atoms: _488  and  _490
REMARK  207  A    between atoms: _490  and  _491
REMARK  208  A    between atoms: _490  and  _493
REMARK  209  A    between atoms: _496  and  _498
REMARK  210  A    between atoms: _498  and  _499
REMARK  211  A    between atoms: _498  and  _501
REMARK  212  A    between atoms: _501  and  _502
REMARK  213  A    between atoms: _507  and  _509
REMARK  214  A    between atoms: _509  and  _510
REMARK  215  A    between atoms: _509  and  _512
REMARK  216  A    between atoms: _515  and  _517
REMARK  217  A    between atoms: _517  and  _518
REMARK  218  A    between atoms: _517  and  _520
REMARK  219  A    between atoms: _520  and  _521
REMARK  220  A    between atoms: _524  and  _526
REMARK  221  A    between atoms: _526  and  _527
REMARK  222  A    between atoms: _529  and  _531
REMARK  223  A    between atoms: _531  and  _532
REMARK  224  A    between atoms: _531  and  _534
REMARK  225  A    between atoms: _534  and  _535
REMARK  226  A    between atoms: _535  and  _536
REMARK  227  A    between atoms: _536  and  _537
REMARK  228  A    between atoms: _546  and  _548
REMARK  229  A    between atoms: _548  and  _549
REMARK  230  A    between atoms: _548  and  _551
REMARK  231  A    between atoms: _551  and  _552
REMARK                            x       y       z     vdW  Elec       q    Type
REMARK                         _______ _______ _______ _____ _____    ______ ____
ROOT
ATOM      1  CA  LEU A   1      21.409  30.533   6.668  0.00  0.00    +0.133 C 
ENDROOT
BRANCH   1   2
ATOM      2  N   LEU A   1      20.664  31.735   7.003  0.00  0.00    -0.239 NA
ATOM      3  H   LEU A   1      20.022  31.706   7.821  0.00  0.00    +0.142 HD
ENDBRANCH   1   2
BRANCH   1   4
ATOM      4  C   LEU A   1      20.553  29.631   5.820  0.00  0.00    +0.224 C 
ATOM      5  O   LEU A   1      19.403  29.437   6.159  0.00  0.00    -0.287 OA
ENDBRANCH   1   4
BRANCH   1   6
ATOM      6  CB  LEU A   1      21.820  29.834   7.943  0.00  0.00    +0.025 C 
BRANCH   6   7
ATOM      7  CG  LEU A   1      22.521  30.692   9.006  0.00  0.00    +0.002 C 
ATOM      8  CD2 LEU A   1      22.932  29.855  10.182  0.00  0.00    +0.000 C 
ATOM      9  CD1 LEU A   1      23.739  31.407   8.400  0.00  0.00    +0.000 C 
ENDBRANCH   6   7
ENDBRANCH   1   6
TORSDOF 4
REMARK  Name = ../refined-set-2016/2qd8/2qd8_pocket.pdb
REMARK  231 active torsions:
REMARK  status: ('A' for Active; 'I' for Inactive)
REMARK    1  A    between atoms: _1  and  _3
REMARK    2  A    between atoms: _3  and  _4
REMARK    3  A    between atoms: _3  and  _6
REMARK    4  A    between atoms: _6  and  _7
REMARK    5  A    between atoms: _7  and  _8
REMARK    6  A    between atoms: _8  and  _9
REMARK    7  A    between atoms: _11  and  _15
REMARK    8  A    between atoms: _18  and  _20
REMARK    9  A    between atoms: _20  and  _21
REMARK   10  A    between atoms: _20  and  _23
REMARK   11  A    between atoms: _23  and  _24
REMARK   12  A    between atoms: _27  and  _29
REMARK   13  A    between atoms: _29  and  _30
REMARK   14  A    between atoms: _29  and  _32
REMARK   15  A    between atoms: _32  and  _33
REMARK   16  A    between atoms: _36  and  _38
REMARK   17  A    between atoms: _38  and  _39
REMARK   18  A    between atoms: _38  and  _41
REMARK   19  A    between atoms: _41  and  _42
REMARK   20  A    between atoms: _45  and  _47
REMARK   21  A    between atoms: _47  and  _48
REMARK   22  A    between atoms: _47  and  _50
REMARK   23  A    between atoms: _50  and  _51
REMARK   24  A    between atoms: _54  and  _56
REMARK   25  A    between atoms: _56  and  _57
REMARK   26  A    between atoms: _59  and  _61
REMARK   27  A    between atoms: _61  and  _62
REMARK   28  A    between atoms: _65  and  _67
REMARK   29  A    between atoms: _67  and  _68
REMARK   30  A    between atoms: _67  and  _70
REMARK   31  A    between atoms: _70  and  _71
REMARK   32  A    between atoms: _74  and  _76
REMARK   33  A    between atoms: _76  and  _77
REMARK   34  A    between atoms: _76  and  _79
REMARK   35  A    between atoms: _79  and  _80
REMARK   36  A    between atoms: _83  and  _85
REMARK   37  A    between atoms: _85  and  _86
REMARK   38  A    between atoms: _85  and  _88
REMARK   39  A    between atoms: _88  and  _89
REMARK   40  A    between atoms: _92  and  _94
REMARK   41  A    between atoms: _94  and  _95
REMARK   42  A    between atoms: _94  and  _97
REMARK   43  A    between atoms: _100  and  _102
REMARK   44  A    between atoms: _102  and  _103
REMARK   45  A    between atoms: _102  and  _105
REMARK   46  A    between atoms: _105  and  _106
REMARK   47  A    between atoms: _106  and  _107
REMARK   48  A    between atoms: _107  and  _108
REMARK   49  A    between atoms: _108  and  _109
REMARK   50  A    between atoms: _113  and  _115
REMARK   51  A    between atoms: _115  and  _116
REMARK   52  A    between atoms: _115  and  _118
REMARK   53  A    between atoms: _118  and  _119
REMARK   54  A    between atoms: _119  and  _120
REMARK   55  A    between atoms: _122  and  _124
REMARK   56  A    between atoms: _124  and  _125
REMARK   57  A    between atoms: _124  and  _127
REMARK   58  A    between atoms: _127  and  _128
REMARK   59  A    between atoms: _131  and  _133
REMARK   60  A    between atoms: _133  and  _134
REMARK   61  A    between atoms: _136  and  _138
REMARK   62  A    between atoms: _138  and  _139
REMARK   63  A    between atoms: _141  and  _143
REMARK   64  A    between atoms: _143  and  _144
REMARK   65  A    between atoms: _143  and  _146
REMARK   66  A    between atoms: _146  and  _147
REMARK   67  A    between atoms: _150  and  _152
REMARK   68  A    between atoms: _152  and  _153
REMARK   69  A    between atoms: _155  and  _157
REMARK   70  A    between atoms: _157  and  _158
REMARK   71  A    between atoms: _160  and  _162
REMARK   72  A    between atoms: _162  and  _163
REMARK   73  A    between atoms: _162  and  _165
REMARK   74  A    between atoms: _165  and  _166
REMARK   75  A    between atoms: _172  and  _174
REMARK   76  A    between atoms: _174  and  _175
REMARK   77  A    between atoms: _174  and  _177
REMARK   78  A    between atoms: _177  and  _178
REMARK   79  A    between atoms: _181  and  _183
REMARK   80  A    between atoms: _183  and  _184
REMARK   81  A    between atoms: _183  and  _186
REMARK   82  A    between atoms: _189  and  _191
REMARK   83  A    between atoms: _191  and  _192
REMARK   84  A    between atoms: _191  and  _194
REMARK   85  A    between atoms: _194  and  _195
REMARK   86  A    between atoms: _198  and  _200
REMARK   87  A    between atoms: _200  and  _201
REMARK   88  A    between atoms: _200  and  _203
REMARK   89  A    between atoms: _203  and  _204
REMARK   90  A    between atoms: _208  and  _209
REMARK   91  A    between atoms: _214  and  _216
REMARK   92  A    between atoms: _216  and  _217
REMARK   93  A    between atoms: _216  and  _219
REMARK   94  A    between atoms: _222  and  _224
REMARK   95  A    between atoms: _224  and  _225
REMARK   96  A    between atoms: _224  and  _227
REMARK   97  A    between atoms: _227  and  _228
REMARK   98  A    between atoms: _233  and  _235
REMARK   99  A    between atoms: _235  and  _236
REMARK  100  A    between atoms: _235  and  _238
REMARK  101  A    between atoms: _241  and  _243
REMARK  102  A    between atoms: _243  and  _244
REMARK  103  A    between atoms: _243  and  _246
REMARK  104  A    between atoms: _246  and  _247
REMARK  105  A    between atoms: _250  and  _252
REMARK  106  A    between atoms: _252  and  _253
REMARK  107  A    between atoms: _255  and  _257
REMARK  108  A    between atoms: _257  and  _258
REMARK  109  A    between atoms: _257  and  _260
REMARK  110  A    between atoms: _260  and  _261
REMARK  111  A    between atoms: _261  and  _262
REMARK  112  A    between atoms: _262  and  _263
REMARK  113  A    between atoms: _272  and  _274
REMARK  114  A    between atoms: _274  and  _275
REMARK  115  A    between atoms: _274  and  _277
REMARK  116  A    between atoms: _277  and  _278
REMARK  117  A    between atoms: _283  and  _285
REMARK  118  A    between atoms: _285  and  _286
REMARK  119  A    between atoms: _285  and  _288
REMARK  120  A    between atoms: _288  and  _289
REMARK  121  A    between atoms: _289  and  _290
REMARK  122  A    between atoms: _290  and  _291
REMARK  123  A    between atoms: _300  and  _302
REMARK  124  A    between atoms: _302  and  _303
REMARK  125  A    between atoms: _302  and  _305
REMARK  126  A    between atoms: _305  and  _306
REMARK  127  A    between atoms: _309  and  _311
REMARK  128  A    between atoms: _311  and  _312
REMARK  129  A    between atoms: _311  and  _314
REMARK  130  A    between atoms: _314  and  _315
REMARK  131  A    between atoms: _318  and  _320
REMARK  132  A    between atoms: _320  and  _321
REMARK  133  A    between atoms: _320  and  _323
REMARK  134  A    between atoms: _323  and  _324
REMARK  135  A    between atoms: _327  and  _329
REMARK  136  A    between atoms: _329  and  _330
REMARK  137  A    between atoms: _329  and  _332
REMARK  138  A    between atoms: _332  and  _333
REMARK  139  A    between atoms: _336  and  _338
REMARK  140  A    between atoms: _338  and  _339
REMARK  141  A    between atoms: _341  and  _343
REMARK  142  A    between atoms: _343  and  _344
REMARK  143  A    between atoms: _347  and  _349
REMARK  144  A    between atoms: _349  and  _350
REMARK  145  A    between atoms: _349  and  _352
REMARK  146  A    between atoms: _352  and  _353
REMARK  147  A    between atoms: _356  and  _358
REMARK  148  A    between atoms: _358  and  _359
REMARK  149  A    between atoms: _358  and  _361
REMARK  150  A    between atoms: _361  and  _362
REMARK  151  A    between atoms: _365  and  _367
REMARK  152  A    between atoms: _367  and  _368
REMARK  153  A    between atoms: _367  and  _370
REMARK  154  A    between atoms: _370  and  _371
REMARK  155  A    between atoms: _374  and  _376
REMARK  156  A    between atoms: _376  and  _377
REMARK  157  A    between atoms: _376  and  _379
REMARK  158  A    between atoms: _382  and  _384
REMARK  159  A    between atoms: _384  and  _385
REMARK  160  A    between atoms: _384  and  _387
REMARK  161  A    between atoms: _387  and  _388
REMARK  162  A    between atoms: _388  and  _389
REMARK  163  A    between atoms: _389  and  _390
REMARK  164  A    between atoms: _390  and  _391
REMARK  165  A    between atoms: _395  and  _397
REMARK  166  A    between atoms: _397  and  _398
REMARK  167  A    between atoms: _397  and  _400
REMARK  168  A    between atoms: _400  and  _401
REMARK  169  A    between atoms: _401  and  _402
REMARK  170  A    between atoms: _404  and  _406
REMARK  171  A    between atoms: _406  and  _407
REMARK  172  A    between atoms: _406  and  _409
REMARK  173  A    between atoms: _409  and  _410
REMARK  174  A    between atoms: _413  and  _415
REMARK  175  A    between atoms: _415  and  _416
REMARK  176  A    between atoms: _418  and  _420
REMARK  177  A    between atoms: _420  and  _421
REMARK  178  A    between atoms: _423  and  _425
REMARK  179  A    between atoms: _425  and  _426
REMARK  180  A    between atoms: _425  and  _428
REMARK  181  A    between atoms: _426  and  _427
REMARK  182  A    between atoms: _426  and  _432
REMARK  183  A    between atoms: _427  and  _592
REMARK  184  A    between atoms: _428  and  _429
REMARK  185  A    between atoms: _432  and  _434
REMARK  186  A    between atoms: _434  and  _435
REMARK  187  A    between atoms: _437  and  _439
REMARK  188  A    between atoms: _439  and  _440
REMARK  189  A    between atoms: _442  and  _444
REMARK  190  A    between atoms: _444  and  _445
REMARK  191  A    between atoms: _444  and  _447
REMARK  192  A    between atoms: _447  and  _448
REMARK  193  A    between atoms: _454  and  _456
REMARK  194  A    between atoms: _456  and  _457
REMARK  195  A    between atoms: _456  and  _459
REMARK  196  A    between atoms: _459  and  _460
REMARK  197  A    between atoms: _463  and  _465
REMARK  198  A    between atoms: _465  and  _466
REMARK  199  A    between atoms: _465  and  _468
REMARK  200  A    between atoms: _468  and  _469
REMARK  201  A    between atoms: _472  and  _474
REMARK  202  A    between atoms: _474  and  _475
REMARK  203  A    between atoms: _474  and  _477
REMARK  204  A    between atoms: _477  and  _478
REMARK  205  A    between atoms: _482  and  _483
REMARK  206  A    between atoms: _488  and  _490
REMARK  207  A    between atoms: _490  and  _491
REMARK  208  A    between atoms: _490  and  _493
REMARK  209  A    between atoms: _496  and  _498
REMARK  210  A    between atoms: _498  and  _499
REMARK  211  A    between atoms: _498  and  _501
REMARK  212  A    between atoms: _501  and  _502
REMARK  213  A    between atoms: _507  and  _509
REMARK  214  A    between atoms: _509  and  _510
REMARK  215  A    between atoms: _509  and  _512
REMARK  216  A    between atoms: _515  and  _517
REMARK  217  A    between atoms: _517  and  _518
REMARK  218  A    between atoms: _517  and  _520
REMARK  219  A    between atoms: _520  and  _521
REMARK  220  A    between atoms: _524  and  _526
REMARK  221  A    between atoms: _526  and  _527
REMARK  222  A    between atoms: _529  and  _531
REMARK  223  A    between atoms: _531  and  _532
REMARK  224  A    between atoms: _531  and  _534
REMARK  225  A    between atoms: _534  and  _535
REMARK  226  A    between atoms: _535  and  _536
REMARK  227  A    between atoms: _536  and  _537
REMARK  228  A    between atoms: _546  and  _548
REMARK  229  A    between atoms: _548  and  _549
REMARK  230  A    between atoms: _548  and  _551
REMARK  231  A    between atoms: _551  and  _552
REMARK                            x       y       z     vdW  Elec       q    Type
REMARK                         _______ _______ _______ _____ _____    ______ ____
ROOT
ATOM      1  C   VAL A   5      13.601  29.811  11.470  0.00  0.00    +0.241 C 
ATOM      2  N   ILE A   6      12.756  30.623  12.092  0.00  0.00    -0.297 N 
ATOM      3  H   ILE A   6      11.851  30.236  12.428  0.00  0.00    +0.150 HD
ATOM      4  O   VAL A   5      14.615  30.193  10.861  0.00  0.00    -0.273 OA
ENDROOT
BRANCH   2   5
ATOM      5  CA  ILE A   6      13.042  32.049  12.328  0.00  0.00    +0.149 C 
BRANCH   5   6
ATOM      6  C   ILE A   6      13.678  32.139  13.711  0.00  0.00    +0.241 C 
ATOM      7  O   ILE A   6      13.042  31.826  14.738  0.00  0.00    -0.273 OA
ATOM      8  N   GLY A   7      14.963  32.473  13.731  0.00  0.00    -0.295 N 
ATOM      9  H   GLY A   7      15.449  32.696  12.839  0.00  0.00    +0.150 HD
BRANCH   8  10
ATOM     10  CA  GLY A   7      15.688  32.530  14.965  0.00  0.00    +0.176 C 
BRANCH  10  11
ATOM     11  C   GLY A   7      15.750  33.916  15.594  0.00  0.00    +0.243 C 
ATOM     12  N   ARG A   8      16.467  33.967  16.725  0.00  0.00    -0.297 N 
ATOM     13  H   ARG A   8      17.028  33.143  17.022  0.00  0.00    +0.150 HD
ATOM     14  O   GLY A   7      15.171  34.870  15.079  0.00  0.00    -0.273 OA
BRANCH  12  15
ATOM     15  CA  ARG A   8      16.462  35.168  17.535  0.00  0.00    +0.149 C 
BRANCH  15  16
ATOM     16  C   ARG A   8      16.983  36.381  16.771  0.00  0.00    +0.241 C 
ATOM     17  O   ARG A   8      16.513  37.497  17.016  0.00  0.00    -0.273 OA
ATOM     18  N   ASN A   9      17.905  36.195  15.829  0.00  0.00    -0.298 N 
ATOM     19  H   ASN A   9      18.264  35.239  15.631  0.00  0.00    +0.150 HD
BRANCH  18  20
ATOM     20  CA  ASN A   9      18.408  37.334  15.078  0.00  0.00    +0.146 C 
BRANCH  20  21
ATOM     21  C   ASN A   9      17.331  38.126  14.346  0.00  0.00    +0.227 C 
ATOM     22  O   ASN A   9      17.536  39.318  14.141  0.00  0.00    -0.286 OA
ENDBRANCH  20  21
BRANCH  20  23
ATOM     23  CB  ASN A   9      19.505  36.869  14.108  0.00  0.00    +0.112 C 
BRANCH  23  24
ATOM     24  CG  ASN A   9      18.995  36.152  12.889  0.00  0.00    +0.222 C 
ATOM     25  OD1 ASN A   9      18.272  35.178  13.016  0.00  0.00    -0.275 OA
ATOM     26  ND2 ASN A   9      19.370  36.652  11.721  0.00  0.00    -0.329 N 
ATOM     27 HD21 ASN A   9      19.989  37.487  11.687  0.00  0.00    +0.145 HD
ATOM     28 HD22 ASN A   9      19.045  36.210  10.838  0.00  0.00    +0.145 HD
ENDBRANCH  23  24
ENDBRANCH  20  23
ENDBRANCH  18  20
ENDBRANCH  15  16
BRANCH  15  29
ATOM     29  CB  ARG A   8      17.267  34.977  18.789  0.00  0.00    +0.033 C 
BRANCH  29  30
ATOM     30  CG  ARG A   8      16.638  33.987  19.741  0.00  0.00    +0.045 C 
BRANCH  30  31
ATOM     31  CD  ARG A   8      17.330  33.937  21.114  0.00  0.00    +0.174 C 
BRANCH  31  32
ATOM     32  NE  ARG A   8      18.704  33.521  20.974  0.00  0.00    -0.265 N 
ATOM     33  CZ  ARG A   8      19.788  34.278  20.916  0.00  0.00    +0.342 C 
ATOM     34  NH2 ARG A   8      19.740  35.620  21.048  0.00  0.00    -0.292 N 
ATOM     35 HH21 ARG A   8      18.828  36.095  21.201  0.00  0.00    +0.255 HD
ATOM     36 HH22 ARG A   8      20.615  36.179  20.996  0.00  0.00    +0.255 HD
ATOM     37  NH1 ARG A   8      20.983  33.740  20.747  0.00  0.00    -0.292 N 
ATOM     38 HH11 ARG A   8      21.826  34.348  20.703  0.00  0.00    +0.255 HD
ATOM     39 HH12 ARG A   8      21.081  32.708  20.658  0.00  0.00    +0.255 HD
ATOM     40  HE  ARG A   8      18.863  32.495  20.911  0.00  0.00    +0.259 HD
ENDBRANCH  31  32
ENDBRANCH  30  31
ENDBRANCH  29  30
ENDBRANCH  15  29
ENDBRANCH  12  15
ENDBRANCH  10  11
ENDBRANCH   8  10
ENDBRANCH   5   6
BRANCH   5  41
ATOM     41  CB  ILE A   6      11.804  32.955  12.271  0.00  0.00    +0.027 C 
ATOM     42  CG2 ILE A   6      12.107  34.409  12.571  0.00  0.00    +0.002 C 
BRANCH  41  43
ATOM     43  CG1 ILE A   6      11.060  32.822  10.941  0.00  0.00    +0.002 C 
ATOM     44  CD1 ILE A   6      11.952  33.036   9.716  0.00  0.00    +0.000 C 
ENDBRANCH  41  43
ENDBRANCH   5  41
ENDBRANCH   2   5
BRANCH   1  45
ATOM     45  CA  VAL A   5      13.199  28.345  11.538  0.00  0.00    +0.149 C 
BRANCH  45  48
ATOM     46  C   ASN A   4      12.205  27.101   9.708  0.00  0.00    +0.241 C 
ATOM     47  O   ASN A   4      11.119  27.003  10.271  0.00  0.00    -0.273 OA
ATOM     48  N   VAL A   5      13.273  27.736  10.204  0.00  0.00    -0.297 N 
ATOM     49  H   VAL A   5      14.150  27.798   9.648  0.00  0.00    +0.150 HD
BRANCH  46  50
ATOM     50  CA  ASN A   4      12.392  26.472   8.325  0.00  0.00    +0.158 C 
BRANCH  50  53
ATOM     51  C   VAL A   3      12.680  24.150   8.984  0.00  0.00    +0.241 C 
ATOM     52  O   VAL A   3      13.819  24.418   9.396  0.00  0.00    -0.273 OA
ATOM     53  N   ASN A   4      11.963  25.074   8.366  0.00  0.00    -0.297 N 
ATOM     54  H   ASN A   4      11.075  24.801   7.899  0.00  0.00    +0.150 HD
BRANCH  51  55
ATOM     55  CA  VAL A   3      12.106  22.773   9.186  0.00  0.00    +0.149 C 
BRANCH  55  57
ATOM     56  C   PRO A   2      13.033  20.630   8.340  0.00  0.00    +0.245 C 
ATOM     57  N   VAL A   3      13.181  21.792   8.953  0.00  0.00    -0.297 N 
ATOM     58  H   VAL A   3      14.132  22.033   9.298  0.00  0.00    +0.150 HD
ATOM     59  O   PRO A   2      11.928  20.301   7.872  0.00  0.00    -0.273 OA
BRANCH  56  65
ATOM     60  C   THR A   1      15.927  21.208   7.457  0.00  0.00    +0.244 C 
ATOM     61  N   PRO A   2      15.516  20.382   8.397  0.00  0.00    -0.264 N 
ATOM     62  CD  PRO A   2      16.218  19.976   9.638  0.00  0.00    +0.120 C 
ATOM     63  CG  PRO A   2      15.277  18.946  10.184  0.00  0.00    -0.007 C 
ATOM     64  CB  PRO A   2      14.185  18.650   9.317  0.00  0.00    -0.000 C 
ATOM     65  CA  PRO A   2      14.228  19.702   8.202  0.00  0.00    +0.175 C 
ATOM     66  O   THR A   1      15.289  21.391   6.404  0.00  0.00    -0.273 OA
BRANCH  60  67
ATOM     67  CA  THR A   1      17.245  21.925   7.688  0.00  0.00    +0.172 C 
BRANCH  67  68
ATOM     68  CB  THR A   1      17.020  23.328   8.246  0.00  0.00    +0.135 C 
ATOM     69  CG2 THR A   1      16.303  24.276   7.287  0.00  0.00    +0.034 C 
BRANCH  68  70
ATOM     70  OG1 THR A   1      16.227  23.213   9.421  0.00  0.00    -0.383 OA
ATOM     71  HG1 THR A   1      15.360  22.793   9.193  0.00  0.00    +0.210 HD
ENDBRANCH  68  70
ENDBRANCH  67  68
BRANCH  67  72
ATOM     72  N   THR A   1      17.988  21.953   6.431  0.00  0.00    -0.236 NA
ATOM     73  H   THR A   1      17.940  22.813   5.849  0.00  0.00    +0.142 HD
ENDBRANCH  67  72
ENDBRANCH  60  67
ENDBRANCH  56  65
ENDBRANCH  55  57
BRANCH  55  74
ATOM     74  CB  VAL A   3      11.528  22.628  10.619  0.00  0.00    +0.027 C 
ATOM     75  CG2 VAL A   3      11.069  21.195  10.922  0.00  0.00    +0.002 C 
ATOM     76  CG1 VAL A   3      10.376  23.573  10.865  0.00  0.00    +0.002 C 
ENDBRANCH  55  74
ENDBRANCH  51  55
ENDBRANCH  50  53
BRANCH  50  77
ATOM     77  CB  ASN A   4      11.537  27.225   7.326  0.00  0.00    +0.114 C 
BRANCH  77  78
ATOM     78  CG  ASN A   4      11.654  26.697   5.897  0.00  0.00    +0.222 C 
ATOM     79  OD1 ASN A   4      12.755  26.312   5.458  0.00  0.00    -0.275 OA
ATOM     80  ND2 ASN A   4      10.552  26.707   5.158  0.00  0.00    -0.329 N 
ATOM     81 HD21 ASN A   4       9.655  27.037   5.567  0.00  0.00    +0.145 HD
ATOM     82 HD22 ASN A   4      10.586  26.385   4.170  0.00  0.00    +0.145 HD
ENDBRANCH  77  78
ENDBRANCH  50  77
ENDBRANCH  46  50
ENDBRANCH  45  48
BRANCH  45  83
ATOM     83  CB  VAL A   5      13.982  27.650  12.637  0.00  0.00    +0.027 C 
ATOM     84  CG2 VAL A   5      13.556  26.182  12.767  0.00  0.00    +0.002 C 
ATOM     85  CG1 VAL A   5      15.412  27.737  12.420  0.00  0.00    +0.002 C 
ENDBRANCH  45  83
ENDBRANCH   1  45
TORSDOF 31
REMARK  Name = ../refined-set-2016/2qd8/2qd8_pocket.pdb
REMARK  231 active torsions:
REMARK  status: ('A' for Active; 'I' for Inactive)
REMARK    1  A    between atoms: _1  and  _3
REMARK    2  A    between atoms: _3  and  _4
REMARK    3  A    between atoms: _3  and  _6
REMARK    4  A    between atoms: _6  and  _7
REMARK    5  A    between atoms: _7  and  _8
REMARK    6  A    between atoms: _8  and  _9
REMARK    7  A    between atoms: _11  and  _15
REMARK    8  A    between atoms: _18  and  _20
REMARK    9  A    between atoms: _20  and  _21
REMARK   10  A    between atoms: _20  and  _23
REMARK   11  A    between atoms: _23  and  _24
REMARK   12  A    between atoms: _27  and  _29
REMARK   13  A    between atoms: _29  and  _30
REMARK   14  A    between atoms: _29  and  _32
REMARK   15  A    between atoms: _32  and  _33
REMARK   16  A    between atoms: _36  and  _38
REMARK   17  A    between atoms: _38  and  _39
REMARK   18  A    between atoms: _38  and  _41
REMARK   19  A    between atoms: _41  and  _42
REMARK   20  A    between atoms: _45  and  _47
REMARK   21  A    between atoms: _47  and  _48
REMARK   22  A    between atoms: _47  and  _50
REMARK   23  A    between atoms: _50  and  _51
REMARK   24  A    between atoms: _54  and  _56
REMARK   25  A    between atoms: _56  and  _57
REMARK   26  A    between atoms: _59  and  _61
REMARK   27  A    between atoms: _61  and  _62
REMARK   28  A    between atoms: _65  and  _67
REMARK   29  A    between atoms: _67  and  _68
REMARK   30  A    between atoms: _67  and  _70
REMARK   31  A    between atoms: _70  and  _71
REMARK   32  A    between atoms: _74  and  _76
REMARK   33  A    between atoms: _76  and  _77
REMARK   34  A    between atoms: _76  and  _79
REMARK   35  A    between atoms: _79  and  _80
REMARK   36  A    between atoms: _83  and  _85
REMARK   37  A    between atoms: _85  and  _86
REMARK   38  A    between atoms: _85  and  _88
REMARK   39  A    between atoms: _88  and  _89
REMARK   40  A    between atoms: _92  and  _94
REMARK   41  A    between atoms: _94  and  _95
REMARK   42  A    between atoms: _94  and  _97
REMARK   43  A    between atoms: _100  and  _102
REMARK   44  A    between atoms: _102  and  _103
REMARK   45  A    between atoms: _102  and  _105
REMARK   46  A    between atoms: _105  and  _106
REMARK   47  A    between atoms: _106  and  _107
REMARK   48  A    between atoms: _107  and  _108
REMARK   49  A    between atoms: _108  and  _109
REMARK   50  A    between atoms: _113  and  _115
REMARK   51  A    between atoms: _115  and  _116
REMARK   52  A    between atoms: _115  and  _118
REMARK   53  A    between atoms: _118  and  _119
REMARK   54  A    between atoms: _119  and  _120
REMARK   55  A    between atoms: _122  and  _124
REMARK   56  A    between atoms: _124  and  _125
REMARK   57  A    between atoms: _124  and  _127
REMARK   58  A    between atoms: _127  and  _128
REMARK   59  A    between atoms: _131  and  _133
REMARK   60  A    between atoms: _133  and  _134
REMARK   61  A    between atoms: _136  and  _138
REMARK   62  A    between atoms: _138  and  _139
REMARK   63  A    between atoms: _141  and  _143
REMARK   64  A    between atoms: _143  and  _144
REMARK   65  A    between atoms: _143  and  _146
REMARK   66  A    between atoms: _146  and  _147
REMARK   67  A    between atoms: _150  and  _152
REMARK   68  A    between atoms: _152  and  _153
REMARK   69  A    between atoms: _155  and  _157
REMARK   70  A    between atoms: _157  and  _158
REMARK   71  A    between atoms: _160  and  _162
REMARK   72  A    between atoms: _162  and  _163
REMARK   73  A    between atoms: _162  and  _165
REMARK   74  A    between atoms: _165  and  _166
REMARK   75  A    between atoms: _172  and  _174
REMARK   76  A    between atoms: _174  and  _175
REMARK   77  A    between atoms: _174  and  _177
REMARK   78  A    between atoms: _177  and  _178
REMARK   79  A    between atoms: _181  and  _183
REMARK   80  A    between atoms: _183  and  _184
REMARK   81  A    between atoms: _183  and  _186
REMARK   82  A    between atoms: _189  and  _191
REMARK   83  A    between atoms: _191  and  _192
REMARK   84  A    between atoms: _191  and  _194
REMARK   85  A    between atoms: _194  and  _195
REMARK   86  A    between atoms: _198  and  _200
REMARK   87  A    between atoms: _200  and  _201
REMARK   88  A    between atoms: _200  and  _203
REMARK   89  A    between atoms: _203  and  _204
REMARK   90  A    between atoms: _208  and  _209
REMARK   91  A    between atoms: _214  and  _216
REMARK   92  A    between atoms: _216  and  _217
REMARK   93  A    between atoms: _216  and  _219
REMARK   94  A    between atoms: _222  and  _224
REMARK   95  A    between atoms: _224  and  _225
REMARK   96  A    between atoms: _224  and  _227
REMARK   97  A    between atoms: _227  and  _228
REMARK   98  A    between atoms: _233  and  _235
REMARK   99  A    between atoms: _235  and  _236
REMARK  100  A    between atoms: _235  and  _238
REMARK  101  A    between atoms: _241  and  _243
REMARK  102  A    between atoms: _243  and  _244
REMARK  103  A    between atoms: _243  and  _246
REMARK  104  A    between atoms: _246  and  _247
REMARK  105  A    between atoms: _250  and  _252
REMARK  106  A    between atoms: _252  and  _253
REMARK  107  A    between atoms: _255  and  _257
REMARK  108  A    between atoms: _257  and  _258
REMARK  109  A    between atoms: _257  and  _260
REMARK  110  A    between atoms: _260  and  _261
REMARK  111  A    between atoms: _261  and  _262
REMARK  112  A    between atoms: _262  and  _263
REMARK  113  A    between atoms: _272  and  _274
REMARK  114  A    between atoms: _274  and  _275
REMARK  115  A    between atoms: _274  and  _277
REMARK  116  A    between atoms: _277  and  _278
REMARK  117  A    between atoms: _283  and  _285
REMARK  118  A    between atoms: _285  and  _286
REMARK  119  A    between atoms: _285  and  _288
REMARK  120  A    between atoms: _288  and  _289
REMARK  121  A    between atoms: _289  and  _290
REMARK  122  A    between atoms: _290  and  _291
REMARK  123  A    between atoms: _300  and  _302
REMARK  124  A    between atoms: _302  and  _303
REMARK  125  A    between atoms: _302  and  _305
REMARK  126  A    between atoms: _305  and  _306
REMARK  127  A    between atoms: _309  and  _311
REMARK  128  A    between atoms: _311  and  _312
REMARK  129  A    between atoms: _311  and  _314
REMARK  130  A    between atoms: _314  and  _315
REMARK  131  A    between atoms: _318  and  _320
REMARK  132  A    between atoms: _320  and  _321
REMARK  133  A    between atoms: _320  and  _323
REMARK  134  A    between atoms: _323  and  _324
REMARK  135  A    between atoms: _327  and  _329
REMARK  136  A    between atoms: _329  and  _330
REMARK  137  A    between atoms: _329  and  _332
REMARK  138  A    between atoms: _332  and  _333
REMARK  139  A    between atoms: _336  and  _338
REMARK  140  A    between atoms: _338  and  _339
REMARK  141  A    between atoms: _341  and  _343
REMARK  142  A    between atoms: _343  and  _344
REMARK  143  A    between atoms: _347  and  _349
REMARK  144  A    between atoms: _349  and  _350
REMARK  145  A    between atoms: _349  and  _352
REMARK  146  A    between atoms: _352  and  _353
REMARK  147  A    between atoms: _356  and  _358
REMARK  148  A    between atoms: _358  and  _359
REMARK  149  A    between atoms: _358  and  _361
REMARK  150  A    between atoms: _361  and  _362
REMARK  151  A    between atoms: _365  and  _367
REMARK  152  A    between atoms: _367  and  _368
REMARK  153  A    between atoms: _367  and  _370
REMARK  154  A    between atoms: _370  and  _371
REMARK  155  A    between atoms: _374  and  _376
REMARK  156  A    between atoms: _376  and  _377
REMARK  157  A    between atoms: _376  and  _379
REMARK  158  A    between atoms: _382  and  _384
REMARK  159  A    between atoms: _384  and  _385
REMARK  160  A    between atoms: _384  and  _387
REMARK  161  A    between atoms: _387  and  _388
REMARK  162  A    between atoms: _388  and  _389
REMARK  163  A    between atoms: _389  and  _390
REMARK  164  A    between atoms: _390  and  _391
REMARK  165  A    between atoms: _395  and  _397
REMARK  166  A    between atoms: _397  and  _398
REMARK  167  A    between atoms: _397  and  _400
REMARK  168  A    between atoms: _400  and  _401
REMARK  169  A    between atoms: _401  and  _402
REMARK  170  A    between atoms: _404  and  _406
REMARK  171  A    between atoms: _406  and  _407
REMARK  172  A    between atoms: _406  and  _409
REMARK  173  A    between atoms: _409  and  _410
REMARK  174  A    between atoms: _413  and  _415
REMARK  175  A    between atoms: _415  and  _416
REMARK  176  A    between atoms: _418  and  _420
REMARK  177  A    between atoms: _420  and  _421
REMARK  178  A    between atoms: _423  and  _425
REMARK  179  A    between atoms: _425  and  _426
REMARK  180  A    between atoms: _425  and  _428
REMARK  181  A    between atoms: _426  and  _427
REMARK  182  A    between atoms: _426  and  _432
REMARK  183  A    between atoms: _427  and  _592
REMARK  184  A    between atoms: _428  and  _429
REMARK  185  A    between atoms: _432  and  _434
REMARK  186  A    between atoms: _434  and  _435
REMARK  187  A    between atoms: _437  and  _439
REMARK  188  A    between atoms: _439  and  _440
REMARK  189  A    between atoms: _442  and  _444
REMARK  190  A    between atoms: _444  and  _445
REMARK  191  A    between atoms: _444  and  _447
REMARK  192  A    between atoms: _447  and  _448
REMARK  193  A    between atoms: _454  and  _456
REMARK  194  A    between atoms: _456  and  _457
REMARK  195  A    between atoms: _456  and  _459
REMARK  196  A    between atoms: _459  and  _460
REMARK  197  A    between atoms: _463  and  _465
REMARK  198  A    between atoms: _465  and  _466
REMARK  199  A    between atoms: _465  and  _468
REMARK  200  A    between atoms: _468  and  _469
REMARK  201  A    between atoms: _472  and  _474
REMARK  202  A    between atoms: _474  and  _475
REMARK  203  A    between atoms: _474  and  _477
REMARK  204  A    between atoms: _477  and  _478
REMARK  205  A    between atoms: _482  and  _483
REMARK  206  A    between atoms: _488  and  _490
REMARK  207  A    between atoms: _490  and  _491
REMARK  208  A    between atoms: _490  and  _493
REMARK  209  A    between atoms: _496  and  _498
REMARK  210  A    between atoms: _498  and  _499
REMARK  211  A    between atoms: _498  and  _501
REMARK  212  A    between atoms: _501  and  _502
REMARK  213  A    between atoms: _507  and  _509
REMARK  214  A    between atoms: _509  and  _510
REMARK  215  A    between atoms: _509  and  _512
REMARK  216  A    between atoms: _515  and  _517
REMARK  217  A    between atoms: _517  and  _518
REMARK  218  A    between atoms: _517  and  _520
REMARK  219  A    between atoms: _520  and  _521
REMARK  220  A    between atoms: _524  and  _526
REMARK  221  A    between atoms: _526  and  _527
REMARK  222  A    between atoms: _529  and  _531
REMARK  223  A    between atoms: _531  and  _532
REMARK  224  A    between atoms: _531  and  _534
REMARK  225  A    between atoms: _534  and  _535
REMARK  226  A    between atoms: _535  and  _536
REMARK  227  A    between atoms: _536  and  _537
REMARK  228  A    between atoms: _546  and  _548
REMARK  229  A    between atoms: _548  and  _549
REMARK  230  A    between atoms: _548  and  _551
REMARK  231  A    between atoms: _551  and  _552
REMARK                            x       y       z     vdW  Elec       q    Type
REMARK                         _______ _______ _______ _____ _____    ______ ____
ROOT
ATOM      1  NE  ARG A   1      23.045  30.531  22.561  0.00  0.00    -0.265 N 
ATOM      2  CZ  ARG A   1      24.212  29.918  22.477  0.00  0.00    +0.342 C 
ATOM      3  NH2 ARG A   1      24.839  29.398  23.510  0.00  0.00    -0.292 N 
ATOM      4 HH21 ARG A   1      24.417  29.457  24.459  0.00  0.00    +0.255 HD
ATOM      5 HH22 ARG A   1      25.757  28.927  23.378  0.00  0.00    +0.255 HD
ATOM      6  NH1 ARG A   1      24.758  29.830  21.274  0.00  0.00    -0.292 N 
ATOM      7 HH11 ARG A   1      25.676  29.357  21.153  0.00  0.00    +0.255 HD
ATOM      8 HH12 ARG A   1      24.269  30.234  20.450  0.00  0.00    +0.255 HD
ATOM      9  HE  ARG A   1      22.637  30.892  21.675  0.00  0.00    +0.259 HD
ENDROOT
BRANCH   1  10
ATOM     10  CD  ARG A   1      22.284  30.746  23.768  0.00  0.00    +0.174 C 
BRANCH  10  11
ATOM     11  CG  ARG A   1      21.226  31.819  23.543  0.00  0.00    +0.045 C 
BRANCH  11  12
ATOM     12  CB  ARG A   1      20.440  32.063  24.823  0.00  0.00    +0.029 C 
BRANCH  12  13
ATOM     13  CA  ARG A   1      19.458  33.219  24.647  0.00  0.00    +0.133 C 
BRANCH  13  14
ATOM     14  N   ARG A   1      20.193  34.474  24.524  0.00  0.00    -0.239 NA
ATOM     15  H   ARG A   1      21.232  34.475  24.558  0.00  0.00    +0.142 HD
ENDBRANCH  13  14
BRANCH  13  16
ATOM     16  C   ARG A   1      18.520  33.262  25.830  0.00  0.00    +0.224 C 
ATOM     17  O   ARG A   1      18.939  33.731  26.890  0.00  0.00    -0.287 OA
ENDBRANCH  13  16
ENDBRANCH  12  13
ENDBRANCH  11  12
ENDBRANCH  10  11
ENDBRANCH   1  10
TORSDOF 6
REMARK  Name = ../refined-set-2016/2qd8/2qd8_pocket.pdb
REMARK  231 active torsions:
REMARK  status: ('A' for Active; 'I' for Inactive)
REMARK    1  A    between atoms: _1  and  _3
REMARK    2  A    between atoms: _3  and  _4
REMARK    3  A    between atoms: _3  and  _6
REMARK    4  A    between atoms: _6  and  _7
REMARK    5  A    between atoms: _7  and  _8
REMARK    6  A    between atoms: _8  and  _9
REMARK    7  A    between atoms: _11  and  _15
REMARK    8  A    between atoms: _18  and  _20
REMARK    9  A    between atoms: _20  and  _21
REMARK   10  A    between atoms: _20  and  _23
REMARK   11  A    between atoms: _23  and  _24
REMARK   12  A    between atoms: _27  and  _29
REMARK   13  A    between atoms: _29  and  _30
REMARK   14  A    between atoms: _29  and  _32
REMARK   15  A    between atoms: _32  and  _33
REMARK   16  A    between atoms: _36  and  _38
REMARK   17  A    between atoms: _38  and  _39
REMARK   18  A    between atoms: _38  and  _41
REMARK   19  A    between atoms: _41  and  _42
REMARK   20  A    between atoms: _45  and  _47
REMARK   21  A    between atoms: _47  and  _48
REMARK   22  A    between atoms: _47  and  _50
REMARK   23  A    between atoms: _50  and  _51
REMARK   24  A    between atoms: _54  and  _56
REMARK   25  A    between atoms: _56  and  _57
REMARK   26  A    between atoms: _59  and  _61
REMARK   27  A    between atoms: _61  and  _62
REMARK   28  A    between atoms: _65  and  _67
REMARK   29  A    between atoms: _67  and  _68
REMARK   30  A    between atoms: _67  and  _70
REMARK   31  A    between atoms: _70  and  _71
REMARK   32  A    between atoms: _74  and  _76
REMARK   33  A    between atoms: _76  and  _77
REMARK   34  A    between atoms: _76  and  _79
REMARK   35  A    between atoms: _79  and  _80
REMARK   36  A    between atoms: _83  and  _85
REMARK   37  A    between atoms: _85  and  _86
REMARK   38  A    between atoms: _85  and  _88
REMARK   39  A    between atoms: _88  and  _89
REMARK   40  A    between atoms: _92  and  _94
REMARK   41  A    between atoms: _94  and  _95
REMARK   42  A    between atoms: _94  and  _97
REMARK   43  A    between atoms: _100  and  _102
REMARK   44  A    between atoms: _102  and  _103
REMARK   45  A    between atoms: _102  and  _105
REMARK   46  A    between atoms: _105  and  _106
REMARK   47  A    between atoms: _106  and  _107
REMARK   48  A    between atoms: _107  and  _108
REMARK   49  A    between atoms: _108  and  _109
REMARK   50  A    between atoms: _113  and  _115
REMARK   51  A    between atoms: _115  and  _116
REMARK   52  A    between atoms: _115  and  _118
REMARK   53  A    between atoms: _118  and  _119
REMARK   54  A    between atoms: _119  and  _120
REMARK   55  A    between atoms: _122  and  _124
REMARK   56  A    between atoms: _124  and  _125
REMARK   57  A    between atoms: _124  and  _127
REMARK   58  A    between atoms: _127  and  _128
REMARK   59  A    between atoms: _131  and  _133
REMARK   60  A    between atoms: _133  and  _134
REMARK   61  A    between atoms: _136  and  _138
REMARK   62  A    between atoms: _138  and  _139
REMARK   63  A    between atoms: _141  and  _143
REMARK   64  A    between atoms: _143  and  _144
REMARK   65  A    between atoms: _143  and  _146
REMARK   66  A    between atoms: _146  and  _147
REMARK   67  A    between atoms: _150  and  _152
REMARK   68  A    between atoms: _152  and  _153
REMARK   69  A    between atoms: _155  and  _157
REMARK   70  A    between atoms: _157  and  _158
REMARK   71  A    between atoms: _160  and  _162
REMARK   72  A    between atoms: _162  and  _163
REMARK   73  A    between atoms: _162  and  _165
REMARK   74  A    between atoms: _165  and  _166
REMARK   75  A    between atoms: _172  and  _174
REMARK   76  A    between atoms: _174  and  _175
REMARK   77  A    between atoms: _174  and  _177
REMARK   78  A    between atoms: _177  and  _178
REMARK   79  A    between atoms: _181  and  _183
REMARK   80  A    between atoms: _183  and  _184
REMARK   81  A    between atoms: _183  and  _186
REMARK   82  A    between atoms: _189  and  _191
REMARK   83  A    between atoms: _191  and  _192
REMARK   84  A    between atoms: _191  and  _194
REMARK   85  A    between atoms: _194  and  _195
REMARK   86  A    between atoms: _198  and  _200
REMARK   87  A    between atoms: _200  and  _201
REMARK   88  A    between atoms: _200  and  _203
REMARK   89  A    between atoms: _203  and  _204
REMARK   90  A    between atoms: _208  and  _209
REMARK   91  A    between atoms: _214  and  _216
REMARK   92  A    between atoms: _216  and  _217
REMARK   93  A    between atoms: _216  and  _219
REMARK   94  A    between atoms: _222  and  _224
REMARK   95  A    between atoms: _224  and  _225
REMARK   96  A    between atoms: _224  and  _227
REMARK   97  A    between atoms: _227  and  _228
REMARK   98  A    between atoms: _233  and  _235
REMARK   99  A    between atoms: _235  and  _236
REMARK  100  A    between atoms: _235  and  _238
REMARK  101  A    between atoms: _241  and  _243
REMARK  102  A    between atoms: _243  and  _244
REMARK  103  A    between atoms: _243  and  _246
REMARK  104  A    between atoms: _246  and  _247
REMARK  105  A    between atoms: _250  and  _252
REMARK  106  A    between atoms: _252  and  _253
REMARK  107  A    between atoms: _255  and  _257
REMARK  108  A    between atoms: _257  and  _258
REMARK  109  A    between atoms: _257  and  _260
REMARK  110  A    between atoms: _260  and  _261
REMARK  111  A    between atoms: _261  and  _262
REMARK  112  A    between atoms: _262  and  _263
REMARK  113  A    between atoms: _272  and  _274
REMARK  114  A    between atoms: _274  and  _275
REMARK  115  A    between atoms: _274  and  _277
REMARK  116  A    between atoms: _277  and  _278
REMARK  117  A    between atoms: _283  and  _285
REMARK  118  A    between atoms: _285  and  _286
REMARK  119  A    between atoms: _285  and  _288
REMARK  120  A    between atoms: _288  and  _289
REMARK  121  A    between atoms: _289  and  _290
REMARK  122  A    between atoms: _290  and  _291
REMARK  123  A    between atoms: _300  and  _302
REMARK  124  A    between atoms: _302  and  _303
REMARK  125  A    between atoms: _302  and  _305
REMARK  126  A    between atoms: _305  and  _306
REMARK  127  A    between atoms: _309  and  _311
REMARK  128  A    between atoms: _311  and  _312
REMARK  129  A    between atoms: _311  and  _314
REMARK  130  A    between atoms: _314  and  _315
REMARK  131  A    between atoms: _318  and  _320
REMARK  132  A    between atoms: _320  and  _321
REMARK  133  A    between atoms: _320  and  _323
REMARK  134  A    between atoms: _323  and  _324
REMARK  135  A    between atoms: _327  and  _329
REMARK  136  A    between atoms: _329  and  _330
REMARK  137  A    between atoms: _329  and  _332
REMARK  138  A    between atoms: _332  and  _333
REMARK  139  A    between atoms: _336  and  _338
REMARK  140  A    between atoms: _338  and  _339
REMARK  141  A    between atoms: _341  and  _343
REMARK  142  A    between atoms: _343  and  _344
REMARK  143  A    between atoms: _347  and  _349
REMARK  144  A    between atoms: _349  and  _350
REMARK  145  A    between atoms: _349  and  _352
REMARK  146  A    between atoms: _352  and  _353
REMARK  147  A    between atoms: _356  and  _358
REMARK  148  A    between atoms: _358  and  _359
REMARK  149  A    between atoms: _358  and  _361
REMARK  150  A    between atoms: _361  and  _362
REMARK  151  A    between atoms: _365  and  _367
REMARK  152  A    between atoms: _367  and  _368
REMARK  153  A    between atoms: _367  and  _370
REMARK  154  A    between atoms: _370  and  _371
REMARK  155  A    between atoms: _374  and  _376
REMARK  156  A    between atoms: _376  and  _377
REMARK  157  A    between atoms: _376  and  _379
REMARK  158  A    between atoms: _382  and  _384
REMARK  159  A    between atoms: _384  and  _385
REMARK  160  A    between atoms: _384  and  _387
REMARK  161  A    between atoms: _387  and  _388
REMARK  162  A    between atoms: _388  and  _389
REMARK  163  A    between atoms: _389  and  _390
REMARK  164  A    between atoms: _390  and  _391
REMARK  165  A    between atoms: _395  and  _397
REMARK  166  A    between atoms: _397  and  _398
REMARK  167  A    between atoms: _397  and  _400
REMARK  168  A    between atoms: _400  and  _401
REMARK  169  A    between atoms: _401  and  _402
REMARK  170  A    between atoms: _404  and  _406
REMARK  171  A    between atoms: _406  and  _407
REMARK  172  A    between atoms: _406  and  _409
REMARK  173  A    between atoms: _409  and  _410
REMARK  174  A    between atoms: _413  and  _415
REMARK  175  A    between atoms: _415  and  _416
REMARK  176  A    between atoms: _418  and  _420
REMARK  177  A    between atoms: _420  and  _421
REMARK  178  A    between atoms: _423  and  _425
REMARK  179  A    between atoms: _425  and  _426
REMARK  180  A    between atoms: _425  and  _428
REMARK  181  A    between atoms: _426  and  _427
REMARK  182  A    between atoms: _426  and  _432
REMARK  183  A    between atoms: _427  and  _592
REMARK  184  A    between atoms: _428  and  _429
REMARK  185  A    between atoms: _432  and  _434
REMARK  186  A    between atoms: _434  and  _435
REMARK  187  A    between atoms: _437  and  _439
REMARK  188  A    between atoms: _439  and  _440
REMARK  189  A    between atoms: _442  and  _444
REMARK  190  A    between atoms: _444  and  _445
REMARK  191  A    between atoms: _444  and  _447
REMARK  192  A    between atoms: _447  and  _448
REMARK  193  A    between atoms: _454  and  _456
REMARK  194  A    between atoms: _456  and  _457
REMARK  195  A    between atoms: _456  and  _459
REMARK  196  A    between atoms: _459  and  _460
REMARK  197  A    between atoms: _463  and  _465
REMARK  198  A    between atoms: _465  and  _466
REMARK  199  A    between atoms: _465  and  _468
REMARK  200  A    between atoms: _468  and  _469
REMARK  201  A    between atoms: _472  and  _474
REMARK  202  A    between atoms: _474  and  _475
REMARK  203  A    between atoms: _474  and  _477
REMARK  204  A    between atoms: _477  and  _478
REMARK  205  A    between atoms: _482  and  _483
REMARK  206  A    between atoms: _488  and  _490
REMARK  207  A    between atoms: _490  and  _491
REMARK  208  A    between atoms: _490  and  _493
REMARK  209  A    between atoms: _496  and  _498
REMARK  210  A    between atoms: _498  and  _499
REMARK  211  A    between atoms: _498  and  _501
REMARK  212  A    between atoms: _501  and  _502
REMARK  213  A    between atoms: _507  and  _509
REMARK  214  A    between atoms: _509  and  _510
REMARK  215  A    between atoms: _509  and  _512
REMARK  216  A    between atoms: _515  and  _517
REMARK  217  A    between atoms: _517  and  _518
REMARK  218  A    between atoms: _517  and  _520
REMARK  219  A    between atoms: _520  and  _521
REMARK  220  A    between atoms: _524  and  _526
REMARK  221  A    between atoms: _526  and  _527
REMARK  222  A    between atoms: _529  and  _531
REMARK  223  A    between atoms: _531  and  _532
REMARK  224  A    between atoms: _531  and  _534
REMARK  225  A    between atoms: _534  and  _535
REMARK  226  A    between atoms: _535  and  _536
REMARK  227  A    between atoms: _536  and  _537
REMARK  228  A    between atoms: _546  and  _548
REMARK  229  A    between atoms: _548  and  _549
REMARK  230  A    between atoms: _548  and  _551
REMARK  231  A    between atoms: _551  and  _552
REMARK                            x       y       z     vdW  Elec       q    Type
REMARK                         _______ _______ _______ _____ _____    ______ ____
ROOT
ATOM      1  C   GLY A   5      10.951  23.946  18.693  0.00  0.00    +0.243 C 
ATOM      2  N   ALA A   6      10.904  23.626  19.982  0.00  0.00    -0.297 N 
ATOM      3  H   ALA A   6      10.813  24.398  20.673  0.00  0.00    +0.150 HD
ATOM      4  O   GLY A   5      11.108  23.092  17.820  0.00  0.00    -0.273 OA
ENDROOT
BRANCH   2   5
ATOM      5  CA  ALA A   6      10.972  22.261  20.488  0.00  0.00    +0.149 C 
ATOM      6  CB  ALA A   6      11.946  22.226  21.663  0.00  0.00    +0.031 C 
BRANCH   5   7
ATOM      7  C   ALA A   6       9.575  21.792  20.909  0.00  0.00    +0.241 C 
ATOM      8  O   ALA A   6       8.951  22.422  21.744  0.00  0.00    -0.273 OA
ATOM      9  N   ASP A   7       9.104  20.684  20.319  0.00  0.00    -0.297 N 
ATOM     10  H   ASP A   7       9.627  20.227  19.545  0.00  0.00    +0.150 HD
BRANCH   9  11
ATOM     11  CA  ASP A   7       7.846  20.142  20.791  0.00  0.00    +0.160 C 
BRANCH  11  12
ATOM     12  C   ASP A   7       7.957  19.601  22.218  0.00  0.00    +0.241 C 
ATOM     13  O   ASP A   7       7.020  19.661  22.982  0.00  0.00    -0.273 OA
ATOM     14  N   ASP A   8       9.138  19.041  22.504  0.00  0.00    -0.297 N 
ATOM     15  H   ASP A   8       9.905  19.176  21.814  0.00  0.00    +0.150 HD
BRANCH  14  16
ATOM     16  CA  ASP A   8       9.447  18.261  23.692  0.00  0.00    +0.160 C 
BRANCH  16  17
ATOM     17  C   ASP A   8      10.583  18.895  24.473  0.00  0.00    +0.241 C 
ATOM     18  N   THR A   9      10.630  18.538  25.745  0.00  0.00    -0.295 N 
ATOM     19  H   THR A   9       9.870  17.925  26.104  0.00  0.00    +0.150 HD
ATOM     20  O   ASP A   8      11.370  19.646  23.933  0.00  0.00    -0.273 OA
BRANCH  18  21
ATOM     21  CA  THR A   9      11.670  18.942  26.678  0.00  0.00    +0.176 C 
BRANCH  21  22
ATOM     22  C   THR A   9      12.768  17.896  26.682  0.00  0.00    +0.243 C 
ATOM     23  O   THR A   9      12.462  16.691  26.898  0.00  0.00    -0.273 OA
ATOM     24  N   VAL A  10      14.012  18.306  26.440  0.00  0.00    -0.298 N 
ATOM     25  H   VAL A  10      14.190  19.327  26.357  0.00  0.00    +0.150 HD
BRANCH  24  26
ATOM     26  CA  VAL A  10      15.130  17.393  26.287  0.00  0.00    +0.137 C 
BRANCH  26  27
ATOM     27  CB  VAL A  10      15.653  17.274  24.825  0.00  0.00    +0.026 C 
ATOM     28  CG2 VAL A  10      16.623  16.084  24.791  0.00  0.00    +0.002 C 
ATOM     29  CG1 VAL A  10      14.552  17.189  23.815  0.00  0.00    +0.002 C 
ENDBRANCH  26  27
BRANCH  26  30
ATOM     30  C   VAL A  10      16.245  17.879  27.238  0.00  0.00    +0.227 C 
ATOM     31  O   VAL A  10      16.692  19.008  27.140  0.00  0.00    -0.286 OA
ENDBRANCH  26  30
ENDBRANCH  24  26
ENDBRANCH  21  22
BRANCH  21  32
ATOM     32  CB  THR A   9      11.035  19.133  28.058  0.00  0.00    +0.137 C 
ATOM     33  CG2 THR A   9      12.098  19.407  29.107  0.00  0.00    +0.034 C 
BRANCH  32  34
ATOM     34  OG1 THR A   9      10.162  20.278  27.937  0.00  0.00    -0.382 OA
ATOM     35  HG1 THR A   9       9.475  20.096  27.248  0.00  0.00    +0.210 HD
ENDBRANCH  32  34
ENDBRANCH  21  32
ENDBRANCH  18  21
ENDBRANCH  16  17
BRANCH  16  36
ATOM     36  CB  ASP A   8       9.838  16.859  23.308  0.00  0.00    +0.143 C 
BRANCH  36  37
ATOM     37  CG  ASP A   8       8.888  16.150  22.383  0.00  0.00    +0.367 C 
ATOM     38  OD2 ASP A   8       7.670  16.244  22.576  0.00  0.00    -0.246 OA
ATOM     39  OD1 ASP A   8       9.324  15.476  21.447  0.00  0.00    -0.246 OA
ENDBRANCH  36  37
ENDBRANCH  16  36
ENDBRANCH  14  16
ENDBRANCH  11  12
BRANCH  11  40
ATOM     40  CB  ASP A   7       7.412  18.966  19.897  0.00  0.00    +0.143 C 
BRANCH  40  41
ATOM     41  CG  ASP A   7       7.166  19.261  18.445  0.00  0.00    +0.367 C 
ATOM     42  OD2 ASP A   7       6.989  20.410  18.024  0.00  0.00    -0.246 OA
ATOM     43  OD1 ASP A   7       7.154  18.290  17.664  0.00  0.00    -0.246 OA
ENDBRANCH  40  41
ENDBRANCH  11  40
ENDBRANCH   9  11
ENDBRANCH   5   7
ENDBRANCH   2   5
BRANCH   1  44
ATOM     44  CA  GLY A   5      10.788  25.397  18.357  0.00  0.00    +0.176 C 
BRANCH  44  47
ATOM     45  C   THR A   4       9.437  26.580  19.988  0.00  0.00    +0.243 C 
ATOM     46  O   THR A   4       8.388  26.127  19.527  0.00  0.00    -0.273 OA
ATOM     47  N   GLY A   5      10.612  26.313  19.464  0.00  0.00    -0.295 N 
ATOM     48  H   GLY A   5      11.452  26.780  19.862  0.00  0.00    +0.150 HD
BRANCH  45  49
ATOM     49  CA  THR A   4       9.397  27.455  21.230  0.00  0.00    +0.176 C 
BRANCH  49  52
ATOM     50  C   ASP A   3      11.249  26.535  22.491  0.00  0.00    +0.241 C 
ATOM     51  O   ASP A   3      10.713  25.428  22.500  0.00  0.00    -0.273 OA
ATOM     52  N   THR A   4      10.676  27.595  21.888  0.00  0.00    -0.295 N 
ATOM     53  H   THR A   4      11.156  28.518  21.896  0.00  0.00    +0.150 HD
BRANCH  50  54
ATOM     54  CA  ASP A   3      12.578  26.794  23.173  0.00  0.00    +0.160 C 
BRANCH  54  56
ATOM     55  C   LEU A   2      13.111  28.147  25.114  0.00  0.00    +0.241 C 
ATOM     56  N   ASP A   3      12.490  27.092  24.587  0.00  0.00    -0.297 N 
ATOM     57  H   ASP A   3      11.930  26.470  25.205  0.00  0.00    +0.150 HD
ATOM     58  O   LEU A   2      13.664  29.015  24.424  0.00  0.00    -0.273 OA
BRANCH  55  59
ATOM     59  CA  LEU A   2      13.135  28.223  26.639  0.00  0.00    +0.149 C 
BRANCH  59  61
ATOM     60  C   LEU A   1      15.218  27.086  26.891  0.00  0.00    +0.238 C 
ATOM     61  N   LEU A   2      14.535  28.212  27.002  0.00  0.00    -0.297 N 
ATOM     62  H   LEU A   2      14.998  29.078  27.345  0.00  0.00    +0.150 HD
ATOM     63  O   LEU A   1      14.738  25.985  26.615  0.00  0.00    -0.274 OA
BRANCH  60  64
ATOM     64  CA  LEU A   1      16.745  27.185  27.081  0.00  0.00    +0.145 C 
BRANCH  64  65
ATOM     65  N   LEU A   1      17.177  26.253  28.103  0.00  0.00    -0.238 NA
ATOM     66  H   LEU A   1      17.355  25.273  27.802  0.00  0.00    +0.142 HD
ENDBRANCH  64  65
BRANCH  64  67
ATOM     67  CB  LEU A   1      17.548  26.856  25.815  0.00  0.00    +0.026 C 
BRANCH  67  68
ATOM     68  CG  LEU A   1      17.442  27.631  24.554  0.00  0.00    +0.002 C 
ATOM     69  CD2 LEU A   1      17.968  29.042  24.753  0.00  0.00    +0.000 C 
ATOM     70  CD1 LEU A   1      18.265  26.996  23.470  0.00  0.00    +0.000 C 
ENDBRANCH  67  68
ENDBRANCH  64  67
ENDBRANCH  60  64
ENDBRANCH  59  61
BRANCH  59  71
ATOM     71  CB  LEU A   2      12.441  29.448  27.228  0.00  0.00    +0.029 C 
BRANCH  71  72
ATOM     72  CG  LEU A   2      12.507  29.609  28.742  0.00  0.00    +0.002 C 
ATOM     73  CD2 LEU A   2      11.957  28.391  29.435  0.00  0.00    +0.000 C 
ATOM     74  CD1 LEU A   2      11.737  30.867  29.183  0.00  0.00    +0.000 C 
ENDBRANCH  71  72
ENDBRANCH  59  71
ENDBRANCH  55  59
ENDBRANCH  54  56
BRANCH  54  75
ATOM     75  CB  ASP A   3      13.472  25.564  23.057  0.00  0.00    +0.143 C 
BRANCH  75  76
ATOM     76  CG  ASP A   3      13.914  25.278  21.655  0.00  0.00    +0.367 C 
ATOM     77  OD2 ASP A   3      14.787  24.404  21.452  0.00  0.00    -0.246 OA
ATOM     78  OD1 ASP A   3      13.395  25.970  20.722  0.00  0.00    -0.246 OA
ENDBRANCH  75  76
ENDBRANCH  54  75
ENDBRANCH  50  54
ENDBRANCH  49  52
BRANCH  49  79
ATOM     79  CB  THR A   4       8.845  28.833  20.839  0.00  0.00    +0.137 C 
ATOM     80  CG2 THR A   4       8.603  29.719  22.060  0.00  0.00    +0.034 C 
BRANCH  79  81
ATOM     81  OG1 THR A   4       9.751  29.509  19.970  0.00  0.00    -0.382 OA
ATOM     82  HG1 THR A   4       9.883  28.971  19.149  0.00  0.00    +0.210 HD
ENDBRANCH  79  81
ENDBRANCH  49  79
ENDBRANCH  45  49
ENDBRANCH  44  47
ENDBRANCH   1  44
TORSDOF 35
REMARK  Name = ../refined-set-2016/2qd8/2qd8_pocket.pdb
REMARK  231 active torsions:
REMARK  status: ('A' for Active; 'I' for Inactive)
REMARK    1  A    between atoms: _1  and  _3
REMARK    2  A    between atoms: _3  and  _4
REMARK    3  A    between atoms: _3  and  _6
REMARK    4  A    between atoms: _6  and  _7
REMARK    5  A    between atoms: _7  and  _8
REMARK    6  A    between atoms: _8  and  _9
REMARK    7  A    between atoms: _11  and  _15
REMARK    8  A    between atoms: _18  and  _20
REMARK    9  A    between atoms: _20  and  _21
REMARK   10  A    between atoms: _20  and  _23
REMARK   11  A    between atoms: _23  and  _24
REMARK   12  A    between atoms: _27  and  _29
REMARK   13  A    between atoms: _29  and  _30
REMARK   14  A    between atoms: _29  and  _32
REMARK   15  A    between atoms: _32  and  _33
REMARK   16  A    between atoms: _36  and  _38
REMARK   17  A    between atoms: _38  and  _39
REMARK   18  A    between atoms: _38  and  _41
REMARK   19  A    between atoms: _41  and  _42
REMARK   20  A    between atoms: _45  and  _47
REMARK   21  A    between atoms: _47  and  _48
REMARK   22  A    between atoms: _47  and  _50
REMARK   23  A    between atoms: _50  and  _51
REMARK   24  A    between atoms: _54  and  _56
REMARK   25  A    between atoms: _56  and  _57
REMARK   26  A    between atoms: _59  and  _61
REMARK   27  A    between atoms: _61  and  _62
REMARK   28  A    between atoms: _65  and  _67
REMARK   29  A    between atoms: _67  and  _68
REMARK   30  A    between atoms: _67  and  _70
REMARK   31  A    between atoms: _70  and  _71
REMARK   32  A    between atoms: _74  and  _76
REMARK   33  A    between atoms: _76  and  _77
REMARK   34  A    between atoms: _76  and  _79
REMARK   35  A    between atoms: _79  and  _80
REMARK   36  A    between atoms: _83  and  _85
REMARK   37  A    between atoms: _85  and  _86
REMARK   38  A    between atoms: _85  and  _88
REMARK   39  A    between atoms: _88  and  _89
REMARK   40  A    between atoms: _92  and  _94
REMARK   41  A    between atoms: _94  and  _95
REMARK   42  A    between atoms: _94  and  _97
REMARK   43  A    between atoms: _100  and  _102
REMARK   44  A    between atoms: _102  and  _103
REMARK   45  A    between atoms: _102  and  _105
REMARK   46  A    between atoms: _105  and  _106
REMARK   47  A    between atoms: _106  and  _107
REMARK   48  A    between atoms: _107  and  _108
REMARK   49  A    between atoms: _108  and  _109
REMARK   50  A    between atoms: _113  and  _115
REMARK   51  A    between atoms: _115  and  _116
REMARK   52  A    between atoms: _115  and  _118
REMARK   53  A    between atoms: _118  and  _119
REMARK   54  A    between atoms: _119  and  _120
REMARK   55  A    between atoms: _122  and  _124
REMARK   56  A    between atoms: _124  and  _125
REMARK   57  A    between atoms: _124  and  _127
REMARK   58  A    between atoms: _127  and  _128
REMARK   59  A    between atoms: _131  and  _133
REMARK   60  A    between atoms: _133  and  _134
REMARK   61  A    between atoms: _136  and  _138
REMARK   62  A    between atoms: _138  and  _139
REMARK   63  A    between atoms: _141  and  _143
REMARK   64  A    between atoms: _143  and  _144
REMARK   65  A    between atoms: _143  and  _146
REMARK   66  A    between atoms: _146  and  _147
REMARK   67  A    between atoms: _150  and  _152
REMARK   68  A    between atoms: _152  and  _153
REMARK   69  A    between atoms: _155  and  _157
REMARK   70  A    between atoms: _157  and  _158
REMARK   71  A    between atoms: _160  and  _162
REMARK   72  A    between atoms: _162  and  _163
REMARK   73  A    between atoms: _162  and  _165
REMARK   74  A    between atoms: _165  and  _166
REMARK   75  A    between atoms: _172  and  _174
REMARK   76  A    between atoms: _174  and  _175
REMARK   77  A    between atoms: _174  and  _177
REMARK   78  A    between atoms: _177  and  _178
REMARK   79  A    between atoms: _181  and  _183
REMARK   80  A    between atoms: _183  and  _184
REMARK   81  A    between atoms: _183  and  _186
REMARK   82  A    between atoms: _189  and  _191
REMARK   83  A    between atoms: _191  and  _192
REMARK   84  A    between atoms: _191  and  _194
REMARK   85  A    between atoms: _194  and  _195
REMARK   86  A    between atoms: _198  and  _200
REMARK   87  A    between atoms: _200  and  _201
REMARK   88  A    between atoms: _200  and  _203
REMARK   89  A    between atoms: _203  and  _204
REMARK   90  A    between atoms: _208  and  _209
REMARK   91  A    between atoms: _214  and  _216
REMARK   92  A    between atoms: _216  and  _217
REMARK   93  A    between atoms: _216  and  _219
REMARK   94  A    between atoms: _222  and  _224
REMARK   95  A    between atoms: _224  and  _225
REMARK   96  A    between atoms: _224  and  _227
REMARK   97  A    between atoms: _227  and  _228
REMARK   98  A    between atoms: _233  and  _235
REMARK   99  A    between atoms: _235  and  _236
REMARK  100  A    between atoms: _235  and  _238
REMARK  101  A    between atoms: _241  and  _243
REMARK  102  A    between atoms: _243  and  _244
REMARK  103  A    between atoms: _243  and  _246
REMARK  104  A    between atoms: _246  and  _247
REMARK  105  A    between atoms: _250  and  _252
REMARK  106  A    between atoms: _252  and  _253
REMARK  107  A    between atoms: _255  and  _257
REMARK  108  A    between atoms: _257  and  _258
REMARK  109  A    between atoms: _257  and  _260
REMARK  110  A    between atoms: _260  and  _261
REMARK  111  A    between atoms: _261  and  _262
REMARK  112  A    between atoms: _262  and  _263
REMARK  113  A    between atoms: _272  and  _274
REMARK  114  A    between atoms: _274  and  _275
REMARK  115  A    between atoms: _274  and  _277
REMARK  116  A    between atoms: _277  and  _278
REMARK  117  A    between atoms: _283  and  _285
REMARK  118  A    between atoms: _285  and  _286
REMARK  119  A    between atoms: _285  and  _288
REMARK  120  A    between atoms: _288  and  _289
REMARK  121  A    between atoms: _289  and  _290
REMARK  122  A    between atoms: _290  and  _291
REMARK  123  A    between atoms: _300  and  _302
REMARK  124  A    between atoms: _302  and  _303
REMARK  125  A    between atoms: _302  and  _305
REMARK  126  A    between atoms: _305  and  _306
REMARK  127  A    between atoms: _309  and  _311
REMARK  128  A    between atoms: _311  and  _312
REMARK  129  A    between atoms: _311  and  _314
REMARK  130  A    between atoms: _314  and  _315
REMARK  131  A    between atoms: _318  and  _320
REMARK  132  A    between atoms: _320  and  _321
REMARK  133  A    between atoms: _320  and  _323
REMARK  134  A    between atoms: _323  and  _324
REMARK  135  A    between atoms: _327  and  _329
REMARK  136  A    between atoms: _329  and  _330
REMARK  137  A    between atoms: _329  and  _332
REMARK  138  A    between atoms: _332  and  _333
REMARK  139  A    between atoms: _336  and  _338
REMARK  140  A    between atoms: _338  and  _339
REMARK  141  A    between atoms: _341  and  _343
REMARK  142  A    between atoms: _343  and  _344
REMARK  143  A    between atoms: _347  and  _349
REMARK  144  A    between atoms: _349  and  _350
REMARK  145  A    between atoms: _349  and  _352
REMARK  146  A    between atoms: _352  and  _353
REMARK  147  A    between atoms: _356  and  _358
REMARK  148  A    between atoms: _358  and  _359
REMARK  149  A    between atoms: _358  and  _361
REMARK  150  A    between atoms: _361  and  _362
REMARK  151  A    between atoms: _365  and  _367
REMARK  152  A    between atoms: _367  and  _368
REMARK  153  A    between atoms: _367  and  _370
REMARK  154  A    between atoms: _370  and  _371
REMARK  155  A    between atoms: _374  and  _376
REMARK  156  A    between atoms: _376  and  _377
REMARK  157  A    between atoms: _376  and  _379
REMARK  158  A    between atoms: _382  and  _384
REMARK  159  A    between atoms: _384  and  _385
REMARK  160  A    between atoms: _384  and  _387
REMARK  161  A    between atoms: _387  and  _388
REMARK  162  A    between atoms: _388  and  _389
REMARK  163  A    between atoms: _389  and  _390
REMARK  164  A    between atoms: _390  and  _391
REMARK  165  A    between atoms: _395  and  _397
REMARK  166  A    between atoms: _397  and  _398
REMARK  167  A    between atoms: _397  and  _400
REMARK  168  A    between atoms: _400  and  _401
REMARK  169  A    between atoms: _401  and  _402
REMARK  170  A    between atoms: _404  and  _406
REMARK  171  A    between atoms: _406  and  _407
REMARK  172  A    between atoms: _406  and  _409
REMARK  173  A    between atoms: _409  and  _410
REMARK  174  A    between atoms: _413  and  _415
REMARK  175  A    between atoms: _415  and  _416
REMARK  176  A    between atoms: _418  and  _420
REMARK  177  A    between atoms: _420  and  _421
REMARK  178  A    between atoms: _423  and  _425
REMARK  179  A    between atoms: _425  and  _426
REMARK  180  A    between atoms: _425  and  _428
REMARK  181  A    between atoms: _426  and  _427
REMARK  182  A    between atoms: _426  and  _432
REMARK  183  A    between atoms: _427  and  _592
REMARK  184  A    between atoms: _428  and  _429
REMARK  185  A    between atoms: _432  and  _434
REMARK  186  A    between atoms: _434  and  _435
REMARK  187  A    between atoms: _437  and  _439
REMARK  188  A    between atoms: _439  and  _440
REMARK  189  A    between atoms: _442  and  _444
REMARK  190  A    between atoms: _444  and  _445
REMARK  191  A    between atoms: _444  and  _447
REMARK  192  A    between atoms: _447  and  _448
REMARK  193  A    between atoms: _454  and  _456
REMARK  194  A    between atoms: _456  and  _457
REMARK  195  A    between atoms: _456  and  _459
REMARK  196  A    between atoms: _459  and  _460
REMARK  197  A    between atoms: _463  and  _465
REMARK  198  A    between atoms: _465  and  _466
REMARK  199  A    between atoms: _465  and  _468
REMARK  200  A    between atoms: _468  and  _469
REMARK  201  A    between atoms: _472  and  _474
REMARK  202  A    between atoms: _474  and  _475
REMARK  203  A    between atoms: _474  and  _477
REMARK  204  A    between atoms: _477  and  _478
REMARK  205  A    between atoms: _482  and  _483
REMARK  206  A    between atoms: _488  and  _490
REMARK  207  A    between atoms: _490  and  _491
REMARK  208  A    between atoms: _490  and  _493
REMARK  209  A    between atoms: _496  and  _498
REMARK  210  A    between atoms: _498  and  _499
REMARK  211  A    between atoms: _498  and  _501
REMARK  212  A    between atoms: _501  and  _502
REMARK  213  A    between atoms: _507  and  _509
REMARK  214  A    between atoms: _509  and  _510
REMARK  215  A    between atoms: _509  and  _512
REMARK  216  A    between atoms: _515  and  _517
REMARK  217  A    between atoms: _517  and  _518
REMARK  218  A    between atoms: _517  and  _520
REMARK  219  A    between atoms: _520  and  _521
REMARK  220  A    between atoms: _524  and  _526
REMARK  221  A    between atoms: _526  and  _527
REMARK  222  A    between atoms: _529  and  _531
REMARK  223  A    between atoms: _531  and  _532
REMARK  224  A    between atoms: _531  and  _534
REMARK  225  A    between atoms: _534  and  _535
REMARK  226  A    between atoms: _535  and  _536
REMARK  227  A    between atoms: _536  and  _537
REMARK  228  A    between atoms: _546  and  _548
REMARK  229  A    between atoms: _548  and  _549
REMARK  230  A    between atoms: _548  and  _551
REMARK  231  A    between atoms: _551  and  _552
REMARK                            x       y       z     vdW  Elec       q    Type
REMARK                         _______ _______ _______ _____ _____    ______ ____
ROOT
ATOM      1  C   UNK A   0      17.284  18.306  13.821  0.00  0.00    +0.243 C 
ATOM      2  N   UNK A   0      17.965  19.444  13.885  0.00  0.00    -0.301 N 
ATOM      3  H   UNK A   0      18.048  19.970  14.779  0.00  0.00    +0.150 HD
ATOM      4  O   UNK A   0      17.267  17.606  12.799  0.00  0.00    -0.273 OA
ENDROOT
BRANCH   2   5
ATOM      5  C   UNK A   0      18.579  19.923  12.690  0.00  0.00    +0.118 C 
BRANCH   5   6
ATOM      6  C   UNK A   0      19.219  21.288  13.016  0.00  0.00    +0.022 C 
ATOM      7  C   UNK A   0      20.479  21.021  13.746  0.00  0.00    +0.002 C 
BRANCH   6   8
ATOM      8  C   UNK A   0      19.265  22.067  11.710  0.00  0.00    +0.002 C 
ATOM      9  C   UNK A   0      19.628  23.504  11.920  0.00  0.00    +0.000 C 
ENDBRANCH   6   8
ENDBRANCH   5   6
BRANCH   5  10
ATOM     10  C   UNK A   0      19.588  18.942  12.112  0.00  0.00    +0.231 C 
BRANCH  10  11
ATOM     11  N   UNK A   0      20.309  18.149  12.903  0.00  0.00    -0.264 NA
ATOM     12  H   UNK A   0      20.100  18.096  13.920  0.00  0.00    +0.126 HD
BRANCH  11  13
ATOM     13  C   UNK A   0      21.406  17.346  12.329  0.00  0.00    +0.157 C 
BRANCH  13  14
ATOM     14  C   UNK A   0      21.043  15.908  12.089  0.00  0.00    +0.239 C 
ATOM     15  N   UNK A   0      19.836  15.564  12.428  0.00  0.00    -0.296 N 
ATOM     16  H   UNK A   0      19.194  16.292  12.801  0.00  0.00    +0.150 HD
ATOM     17  O   UNK A   0      21.843  15.119  11.591  0.00  0.00    -0.274 OA
BRANCH  15  18
ATOM     18  C   UNK A   0      19.349  14.194  12.304  0.00  0.00    +0.176 C 
BRANCH  18  19
ATOM     19  C   UNK A   0      18.656  13.776  13.599  0.00  0.00    +0.243 C 
ATOM     20  O   UNK A   0      18.323  14.565  14.452  0.00  0.00    -0.273 OA
ATOM     21  N   PHE A   1      18.405  12.490  13.702  0.00  0.00    -0.297 N 
ATOM     22  H   PHE A   1      18.779  11.859  12.965  0.00  0.00    +0.150 HD
BRANCH  21  23
ATOM     23  CA  PHE A   1      17.636  11.897  14.783  0.00  0.00    +0.153 C 
BRANCH  23  24
ATOM     24  C   PHE A   1      18.515  11.350  15.881  0.00  0.00    +0.241 C 
ATOM     25  N   ILE A   2      18.020  11.421  17.102  0.00  0.00    -0.298 N 
ATOM     26  H   ILE A   2      17.144  11.955  17.274  0.00  0.00    +0.150 HD
ATOM     27  O   PHE A   1      19.610  10.830  15.691  0.00  0.00    -0.273 OA
BRANCH  25  28
ATOM     28  CA  ILE A   2      18.687  10.761  18.205  0.00  0.00    +0.137 C 
BRANCH  28  29
ATOM     29  CB  ILE A   2      19.379  11.757  19.169  0.00  0.00    +0.026 C 
ATOM     30  CG2 ILE A   2      20.522  12.464  18.436  0.00  0.00    +0.002 C 
BRANCH  29  31
ATOM     31  CG1 ILE A   2      18.441  12.743  19.850  0.00  0.00    +0.002 C 
ATOM     32  CD1 ILE A   2      18.932  13.574  21.024  0.00  0.00    +0.000 C 
ENDBRANCH  29  31
ENDBRANCH  28  29
BRANCH  28  33
ATOM     33  C   ILE A   2      17.664   9.942  18.990  0.00  0.00    +0.227 C 
ATOM     34  O   ILE A   2      16.486  10.263  19.021  0.00  0.00    -0.286 OA
ENDBRANCH  28  33
ENDBRANCH  25  28
ENDBRANCH  23  24
BRANCH  23  35
ATOM     35  CB  PHE A   1      16.776  10.733  14.232  0.00  0.00    +0.055 C 
BRANCH  35  36
ATOM     36  CG  PHE A   1      15.582  11.300  13.482  0.00  0.00    -0.020 A 
ATOM     37  CD2 PHE A   1      14.335  11.395  14.060  0.00  0.00    -0.004 A 
ATOM     38  CE2 PHE A   1      13.231  11.916  13.420  0.00  0.00    -0.000 A 
ATOM     39  CZ  PHE A   1      13.359  12.398  12.133  0.00  0.00    -0.000 A 
ATOM     40  CE1 PHE A   1      14.599  12.306  11.543  0.00  0.00    -0.000 A 
ATOM     41  CD1 PHE A   1      15.698  11.775  12.184  0.00  0.00    -0.004 A 
ENDBRANCH  35  36
ENDBRANCH  23  35
ENDBRANCH  21  23
ENDBRANCH  18  19
ENDBRANCH  15  18
ENDBRANCH  13  14
ENDBRANCH  11  13
ENDBRANCH  10  11
BRANCH  10  42
ATOM     42  O   UNK A   0      19.604  18.876  10.886  0.00  0.00    -0.173 OA
BRANCH  42  43
ATOM     43  O   UNK A   0      19.478  18.306   9.315  0.00  0.00    -0.031 OA
ATOM     44  O   UNK A   0      19.650  16.696   9.132  0.00  0.00    -0.002 OA
ENDBRANCH  42  43
ENDBRANCH  10  42
ENDBRANCH   5  10
ENDBRANCH   2   5
BRANCH   1  45
ATOM     45  C   UNK A   0      16.523  17.905  15.061  0.00  0.00    +0.176 C 
BRANCH  45  48
ATOM     46  C   UNK A   0      14.913  16.126  15.097  0.00  0.00    +0.243 C 
ATOM     47  O   UNK A   0      14.034  16.937  15.315  0.00  0.00    -0.273 OA
ATOM     48  N   UNK A   0      16.173  16.502  15.039  0.00  0.00    -0.295 N 
ATOM     49  H   UNK A   0      16.923  15.784  14.977  0.00  0.00    +0.150 HD
BRANCH  46  50
ATOM     50  C   UNK A   0      14.568  14.676  14.914  0.00  0.00    +0.176 C 
BRANCH  50  53
ATOM     51  C   UNK A   0      14.459  13.312  16.948  0.00  0.00    +0.241 C 
ATOM     52  O   UNK A   0      15.613  12.916  16.934  0.00  0.00    -0.273 OA
ATOM     53  N   UNK A   0      13.941  14.186  16.099  0.00  0.00    -0.295 N 
ATOM     54  H   UNK A   0      12.991  14.549  16.315  0.00  0.00    +0.150 HD
BRANCH  51  55
ATOM     55  C   UNK A   0      13.515  12.818  18.024  0.00  0.00    +0.149 C 
BRANCH  55  57
ATOM     56  C   UNK A   0      12.911  10.514  18.297  0.00  0.00    +0.241 C 
ATOM     57  N   UNK A   0      13.870  11.441  18.392  0.00  0.00    -0.297 N 
ATOM     58  H   UNK A   0      14.828  11.197  18.713  0.00  0.00    +0.150 HD
ATOM     59  O   UNK A   0      11.735  10.650  17.980  0.00  0.00    -0.273 OA
BRANCH  56  60
ATOM     60  C   UNK A   0      13.381   9.113  18.635  0.00  0.00    +0.149 C 
BRANCH  60  63
ATOM     61  C   UNK A   0      12.775   8.220  20.819  0.00  0.00    +0.238 C 
ATOM     62  O   UNK A   0      13.931   8.294  21.247  0.00  0.00    -0.274 OA
ATOM     63  N   UNK A   0      12.483   8.499  19.578  0.00  0.00    -0.297 N 
ATOM     64  H   UNK A   0      11.528   8.259  19.244  0.00  0.00    +0.150 HD
BRANCH  61  65
ATOM     65  C   UNK A   0      11.604   7.820  21.697  0.00  0.00    +0.145 C 
BRANCH  65  66
ATOM     66  N   UNK A   0      12.069   6.809  22.607  0.00  0.00    -0.238 NA
ATOM     67  H   UNK A   0      13.071   6.797  22.885  0.00  0.00    +0.142 HD
ENDBRANCH  65  66
BRANCH  65  68
ATOM     68  C   UNK A   0      11.005   9.043  22.400  0.00  0.00    +0.026 C 
BRANCH  68  69
ATOM     69  C   UNK A   0      10.082   9.874  21.494  0.00  0.00    -0.000 C 
BRANCH  69  70
ATOM     70  C   UNK A   0       9.723  11.150  22.235  0.00  0.00    -0.024 C 
BRANCH  70  71
ATOM     71  C   UNK A   0       8.909  12.073  21.370  0.00  0.00    -0.086 C 
BRANCH  71  72
ATOM     72  N   UNK A   0       7.745  11.444  20.697  0.00  0.00    +0.380 N 
ATOM     73  H   UNK A   0       7.097  11.060  21.414  0.00  0.00    -0.089 HD
ATOM     74  H   UNK A   0       7.249  12.158  20.126  0.00  0.00    -0.089 HD
ATOM     75  H   UNK A   0       8.077  10.675  20.081  0.00  0.00    -0.089 HD
ENDBRANCH  71  72
ENDBRANCH  70  71
ENDBRANCH  69  70
ENDBRANCH  68  69
ENDBRANCH  65  68
ENDBRANCH  61  65
ENDBRANCH  60  63
BRANCH  60  76
ATOM     76  C   UNK A   0      13.548   8.311  17.335  0.00  0.00    +0.041 C 
BRANCH  76  77
ATOM     77  C   UNK A   0      14.877   8.680  16.660  0.00  0.00    +0.060 C 
BRANCH  77  78
ATOM     78  S   UNK A   0      15.322   7.508  15.396  0.00  0.00    -0.139 S 
ATOM     79  C   UNK A   0      14.778   5.951  16.090  0.00  0.00    +0.069 C 
ENDBRANCH  77  78
ENDBRANCH  76  77
ENDBRANCH  60  76
ENDBRANCH  56  60
ENDBRANCH  55  57
BRANCH  55  80
ATOM     80  C   UNK A   0      13.498  13.751  19.246  0.00  0.00    +0.027 C 
ATOM     81  C   UNK A   0      12.355  13.350  20.170  0.00  0.00    +0.002 C 
BRANCH  80  82
ATOM     82  C   UNK A   0      14.836  13.834  19.965  0.00  0.00    +0.002 C 
ATOM     83  C   UNK A   0      14.917  14.783  21.138  0.00  0.00    +0.000 C 
ENDBRANCH  80  82
ENDBRANCH  55  80
ENDBRANCH  51  55
ENDBRANCH  50  53
ENDBRANCH  46  50
ENDBRANCH  45  48
ENDBRANCH   1  45
TORSDOF 39
REMARK  Name = ../refined-set-2016/2qd8/2qd8_pocket.pdb
REMARK  231 active torsions:
REMARK  status: ('A' for Active; 'I' for Inactive)
REMARK    1  A    between atoms: _1  and  _3
REMARK    2  A    between atoms: _3  and  _4
REMARK    3  A    between atoms: _3  and  _6
REMARK    4  A    between atoms: _6  and  _7
REMARK    5  A    between atoms: _7  and  _8
REMARK    6  A    between atoms: _8  and  _9
REMARK    7  A    between atoms: _11  and  _15
REMARK    8  A    between atoms: _18  and  _20
REMARK    9  A    between atoms: _20  and  _21
REMARK   10  A    between atoms: _20  and  _23
REMARK   11  A    between atoms: _23  and  _24
REMARK   12  A    between atoms: _27  and  _29
REMARK   13  A    between atoms: _29  and  _30
REMARK   14  A    between atoms: _29  and  _32
REMARK   15  A    between atoms: _32  and  _33
REMARK   16  A    between atoms: _36  and  _38
REMARK   17  A    between atoms: _38  and  _39
REMARK   18  A    between atoms: _38  and  _41
REMARK   19  A    between atoms: _41  and  _42
REMARK   20  A    between atoms: _45  and  _47
REMARK   21  A    between atoms: _47  and  _48
REMARK   22  A    between atoms: _47  and  _50
REMARK   23  A    between atoms: _50  and  _51
REMARK   24  A    between atoms: _54  and  _56
REMARK   25  A    between atoms: _56  and  _57
REMARK   26  A    between atoms: _59  and  _61
REMARK   27  A    between atoms: _61  and  _62
REMARK   28  A    between atoms: _65  and  _67
REMARK   29  A    between atoms: _67  and  _68
REMARK   30  A    between atoms: _67  and  _70
REMARK   31  A    between atoms: _70  and  _71
REMARK   32  A    between atoms: _74  and  _76
REMARK   33  A    between atoms: _76  and  _77
REMARK   34  A    between atoms: _76  and  _79
REMARK   35  A    between atoms: _79  and  _80
REMARK   36  A    between atoms: _83  and  _85
REMARK   37  A    between atoms: _85  and  _86
REMARK   38  A    between atoms: _85  and  _88
REMARK   39  A    between atoms: _88  and  _89
REMARK   40  A    between atoms: _92  and  _94
REMARK   41  A    between atoms: _94  and  _95
REMARK   42  A    between atoms: _94  and  _97
REMARK   43  A    between atoms: _100  and  _102
REMARK   44  A    between atoms: _102  and  _103
REMARK   45  A    between atoms: _102  and  _105
REMARK   46  A    between atoms: _105  and  _106
REMARK   47  A    between atoms: _106  and  _107
REMARK   48  A    between atoms: _107  and  _108
REMARK   49  A    between atoms: _108  and  _109
REMARK   50  A    between atoms: _113  and  _115
REMARK   51  A    between atoms: _115  and  _116
REMARK   52  A    between atoms: _115  and  _118
REMARK   53  A    between atoms: _118  and  _119
REMARK   54  A    between atoms: _119  and  _120
REMARK   55  A    between atoms: _122  and  _124
REMARK   56  A    between atoms: _124  and  _125
REMARK   57  A    between atoms: _124  and  _127
REMARK   58  A    between atoms: _127  and  _128
REMARK   59  A    between atoms: _131  and  _133
REMARK   60  A    between atoms: _133  and  _134
REMARK   61  A    between atoms: _136  and  _138
REMARK   62  A    between atoms: _138  and  _139
REMARK   63  A    between atoms: _141  and  _143
REMARK   64  A    between atoms: _143  and  _144
REMARK   65  A    between atoms: _143  and  _146
REMARK   66  A    between atoms: _146  and  _147
REMARK   67  A    between atoms: _150  and  _152
REMARK   68  A    between atoms: _152  and  _153
REMARK   69  A    between atoms: _155  and  _157
REMARK   70  A    between atoms: _157  and  _158
REMARK   71  A    between atoms: _160  and  _162
REMARK   72  A    between atoms: _162  and  _163
REMARK   73  A    between atoms: _162  and  _165
REMARK   74  A    between atoms: _165  and  _166
REMARK   75  A    between atoms: _172  and  _174
REMARK   76  A    between atoms: _174  and  _175
REMARK   77  A    between atoms: _174  and  _177
REMARK   78  A    between atoms: _177  and  _178
REMARK   79  A    between atoms: _181  and  _183
REMARK   80  A    between atoms: _183  and  _184
REMARK   81  A    between atoms: _183  and  _186
REMARK   82  A    between atoms: _189  and  _191
REMARK   83  A    between atoms: _191  and  _192
REMARK   84  A    between atoms: _191  and  _194
REMARK   85  A    between atoms: _194  and  _195
REMARK   86  A    between atoms: _198  and  _200
REMARK   87  A    between atoms: _200  and  _201
REMARK   88  A    between atoms: _200  and  _203
REMARK   89  A    between atoms: _203  and  _204
REMARK   90  A    between atoms: _208  and  _209
REMARK   91  A    between atoms: _214  and  _216
REMARK   92  A    between atoms: _216  and  _217
REMARK   93  A    between atoms: _216  and  _219
REMARK   94  A    between atoms: _222  and  _224
REMARK   95  A    between atoms: _224  and  _225
REMARK   96  A    between atoms: _224  and  _227
REMARK   97  A    between atoms: _227  and  _228
REMARK   98  A    between atoms: _233  and  _235
REMARK   99  A    between atoms: _235  and  _236
REMARK  100  A    between atoms: _235  and  _238
REMARK  101  A    between atoms: _241  and  _243
REMARK  102  A    between atoms: _243  and  _244
REMARK  103  A    between atoms: _243  and  _246
REMARK  104  A    between atoms: _246  and  _247
REMARK  105  A    between atoms: _250  and  _252
REMARK  106  A    between atoms: _252  and  _253
REMARK  107  A    between atoms: _255  and  _257
REMARK  108  A    between atoms: _257  and  _258
REMARK  109  A    between atoms: _257  and  _260
REMARK  110  A    between atoms: _260  and  _261
REMARK  111  A    between atoms: _261  and  _262
REMARK  112  A    between atoms: _262  and  _263
REMARK  113  A    between atoms: _272  and  _274
REMARK  114  A    between atoms: _274  and  _275
REMARK  115  A    between atoms: _274  and  _277
REMARK  116  A    between atoms: _277  and  _278
REMARK  117  A    between atoms: _283  and  _285
REMARK  118  A    between atoms: _285  and  _286
REMARK  119  A    between atoms: _285  and  _288
REMARK  120  A    between atoms: _288  and  _289
REMARK  121  A    between atoms: _289  and  _290
REMARK  122  A    between atoms: _290  and  _291
REMARK  123  A    between atoms: _300  and  _302
REMARK  124  A    between atoms: _302  and  _303
REMARK  125  A    between atoms: _302  and  _305
REMARK  126  A    between atoms: _305  and  _306
REMARK  127  A    between atoms: _309  and  _311
REMARK  128  A    between atoms: _311  and  _312
REMARK  129  A    between atoms: _311  and  _314
REMARK  130  A    between atoms: _314  and  _315
REMARK  131  A    between atoms: _318  and  _320
REMARK  132  A    between atoms: _320  and  _321
REMARK  133  A    between atoms: _320  and  _323
REMARK  134  A    between atoms: _323  and  _324
REMARK  135  A    between atoms: _327  and  _329
REMARK  136  A    between atoms: _329  and  _330
REMARK  137  A    between atoms: _329  and  _332
REMARK  138  A    between atoms: _332  and  _333
REMARK  139  A    between atoms: _336  and  _338
REMARK  140  A    between atoms: _338  and  _339
REMARK  141  A    between atoms: _341  and  _343
REMARK  142  A    between atoms: _343  and  _344
REMARK  143  A    between atoms: _347  and  _349
REMARK  144  A    between atoms: _349  and  _350
REMARK  145  A    between atoms: _349  and  _352
REMARK  146  A    between atoms: _352  and  _353
REMARK  147  A    between atoms: _356  and  _358
REMARK  148  A    between atoms: _358  and  _359
REMARK  149  A    between atoms: _358  and  _361
REMARK  150  A    between atoms: _361  and  _362
REMARK  151  A    between atoms: _365  and  _367
REMARK  152  A    between atoms: _367  and  _368
REMARK  153  A    between atoms: _367  and  _370
REMARK  154  A    between atoms: _370  and  _371
REMARK  155  A    between atoms: _374  and  _376
REMARK  156  A    between atoms: _376  and  _377
REMARK  157  A    between atoms: _376  and  _379
REMARK  158  A    between atoms: _382  and  _384
REMARK  159  A    between atoms: _384  and  _385
REMARK  160  A    between atoms: _384  and  _387
REMARK  161  A    between atoms: _387  and  _388
REMARK  162  A    between atoms: _388  and  _389
REMARK  163  A    between atoms: _389  and  _390
REMARK  164  A    between atoms: _390  and  _391
REMARK  165  A    between atoms: _395  and  _397
REMARK  166  A    between atoms: _397  and  _398
REMARK  167  A    between atoms: _397  and  _400
REMARK  168  A    between atoms: _400  and  _401
REMARK  169  A    between atoms: _401  and  _402
REMARK  170  A    between atoms: _404  and  _406
REMARK  171  A    between atoms: _406  and  _407
REMARK  172  A    between atoms: _406  and  _409
REMARK  173  A    between atoms: _409  and  _410
REMARK  174  A    between atoms: _413  and  _415
REMARK  175  A    between atoms: _415  and  _416
REMARK  176  A    between atoms: _418  and  _420
REMARK  177  A    between atoms: _420  and  _421
REMARK  178  A    between atoms: _423  and  _425
REMARK  179  A    between atoms: _425  and  _426
REMARK  180  A    between atoms: _425  and  _428
REMARK  181  A    between atoms: _426  and  _427
REMARK  182  A    between atoms: _426  and  _432
REMARK  183  A    between atoms: _427  and  _592
REMARK  184  A    between atoms: _428  and  _429
REMARK  185  A    between atoms: _432  and  _434
REMARK  186  A    between atoms: _434  and  _435
REMARK  187  A    between atoms: _437  and  _439
REMARK  188  A    between atoms: _439  and  _440
REMARK  189  A    between atoms: _442  and  _444
REMARK  190  A    between atoms: _444  and  _445
REMARK  191  A    between atoms: _444  and  _447
REMARK  192  A    between atoms: _447  and  _448
REMARK  193  A    between atoms: _454  and  _456
REMARK  194  A    between atoms: _456  and  _457
REMARK  195  A    between atoms: _456  and  _459
REMARK  196  A    between atoms: _459  and  _460
REMARK  197  A    between atoms: _463  and  _465
REMARK  198  A    between atoms: _465  and  _466
REMARK  199  A    between atoms: _465  and  _468
REMARK  200  A    between atoms: _468  and  _469
REMARK  201  A    between atoms: _472  and  _474
REMARK  202  A    between atoms: _474  and  _475
REMARK  203  A    between atoms: _474  and  _477
REMARK  204  A    between atoms: _477  and  _478
REMARK  205  A    between atoms: _482  and  _483
REMARK  206  A    between atoms: _488  and  _490
REMARK  207  A    between atoms: _490  and  _491
REMARK  208  A    between atoms: _490  and  _493
REMARK  209  A    between atoms: _496  and  _498
REMARK  210  A    between atoms: _498  and  _499
REMARK  211  A    between atoms: _498  and  _501
REMARK  212  A    between atoms: _501  and  _502
REMARK  213  A    between atoms: _507  and  _509
REMARK  214  A    between atoms: _509  and  _510
REMARK  215  A    between atoms: _509  and  _512
REMARK  216  A    between atoms: _515  and  _517
REMARK  217  A    between atoms: _517  and  _518
REMARK  218  A    between atoms: _517  and  _520
REMARK  219  A    between atoms: _520  and  _521
REMARK  220  A    between atoms: _524  and  _526
REMARK  221  A    between atoms: _526  and  _527
REMARK  222  A    between atoms: _529  and  _531
REMARK  223  A    between atoms: _531  and  _532
REMARK  224  A    between atoms: _531  and  _534
REMARK  225  A    between atoms: _534  and  _535
REMARK  226  A    between atoms: _535  and  _536
REMARK  227  A    between atoms: _536  and  _537
REMARK  228  A    between atoms: _546  and  _548
REMARK  229  A    between atoms: _548  and  _549
REMARK  230  A    between atoms: _548  and  _551
REMARK  231  A    between atoms: _551  and  _552
REMARK                            x       y       z     vdW  Elec       q    Type
REMARK                         _______ _______ _______ _____ _____    ______ ____
ROOT
ATOM      1  CA  LEU A   1      13.343  13.285  27.468  0.00  0.00    +0.133 C 
ENDROOT
BRANCH   1   2
ATOM      2  N   LEU A   1      12.474  14.129  28.260  0.00  0.00    -0.239 NA
ATOM      3  H   LEU A   1      12.344  15.115  27.956  0.00  0.00    +0.142 HD
ENDBRANCH   1   2
BRANCH   1   4
ATOM      4  C   LEU A   1      14.800  13.490  27.903  0.00  0.00    +0.224 C 
ATOM      5  O   LEU A   1      15.217  14.633  28.082  0.00  0.00    -0.287 OA
ENDBRANCH   1   4
BRANCH   1   6
ATOM      6  CB  LEU A   1      13.170  13.561  25.976  0.00  0.00    +0.025 C 
BRANCH   6   7
ATOM      7  CG  LEU A   1      11.727  13.625  25.430  0.00  0.00    +0.002 C 
ATOM      8  CD2 LEU A   1      10.932  12.352  25.728  0.00  0.00    +0.000 C 
ATOM      9  CD1 LEU A   1      11.752  13.929  23.956  0.00  0.00    +0.000 C 
ENDBRANCH   6   7
ENDBRANCH   1   6
TORSDOF 4
REMARK  Name = ../refined-set-2016/2qd8/2qd8_pocket.pdb
REMARK  231 active torsions:
REMARK  status: ('A' for Active; 'I' for Inactive)
REMARK    1  A    between atoms: _1  and  _3
REMARK    2  A    between atoms: _3  and  _4
REMARK    3  A    between atoms: _3  and  _6
REMARK    4  A    between atoms: _6  and  _7
REMARK    5  A    between atoms: _7  and  _8
REMARK    6  A    between atoms: _8  and  _9
REMARK    7  A    between atoms: _11  and  _15
REMARK    8  A    between atoms: _18  and  _20
REMARK    9  A    between atoms: _20  and  _21
REMARK   10  A    between atoms: _20  and  _23
REMARK   11  A    between atoms: _23  and  _24
REMARK   12  A    between atoms: _27  and  _29
REMARK   13  A    between atoms: _29  and  _30
REMARK   14  A    between atoms: _29  and  _32
REMARK   15  A    between atoms: _32  and  _33
REMARK   16  A    between atoms: _36  and  _38
REMARK   17  A    between atoms: _38  and  _39
REMARK   18  A    between atoms: _38  and  _41
REMARK   19  A    between atoms: _41  and  _42
REMARK   20  A    between atoms: _45  and  _47
REMARK   21  A    between atoms: _47  and  _48
REMARK   22  A    between atoms: _47  and  _50
REMARK   23  A    between atoms: _50  and  _51
REMARK   24  A    between atoms: _54  and  _56
REMARK   25  A    between atoms: _56  and  _57
REMARK   26  A    between atoms: _59  and  _61
REMARK   27  A    between atoms: _61  and  _62
REMARK   28  A    between atoms: _65  and  _67
REMARK   29  A    between atoms: _67  and  _68
REMARK   30  A    between atoms: _67  and  _70
REMARK   31  A    between atoms: _70  and  _71
REMARK   32  A    between atoms: _74  and  _76
REMARK   33  A    between atoms: _76  and  _77
REMARK   34  A    between atoms: _76  and  _79
REMARK   35  A    between atoms: _79  and  _80
REMARK   36  A    between atoms: _83  and  _85
REMARK   37  A    between atoms: _85  and  _86
REMARK   38  A    between atoms: _85  and  _88
REMARK   39  A    between atoms: _88  and  _89
REMARK   40  A    between atoms: _92  and  _94
REMARK   41  A    between atoms: _94  and  _95
REMARK   42  A    between atoms: _94  and  _97
REMARK   43  A    between atoms: _100  and  _102
REMARK   44  A    between atoms: _102  and  _103
REMARK   45  A    between atoms: _102  and  _105
REMARK   46  A    between atoms: _105  and  _106
REMARK   47  A    between atoms: _106  and  _107
REMARK   48  A    between atoms: _107  and  _108
REMARK   49  A    between atoms: _108  and  _109
REMARK   50  A    between atoms: _113  and  _115
REMARK   51  A    between atoms: _115  and  _116
REMARK   52  A    between atoms: _115  and  _118
REMARK   53  A    between atoms: _118  and  _119
REMARK   54  A    between atoms: _119  and  _120
REMARK   55  A    between atoms: _122  and  _124
REMARK   56  A    between atoms: _124  and  _125
REMARK   57  A    between atoms: _124  and  _127
REMARK   58  A    between atoms: _127  and  _128
REMARK   59  A    between atoms: _131  and  _133
REMARK   60  A    between atoms: _133  and  _134
REMARK   61  A    between atoms: _136  and  _138
REMARK   62  A    between atoms: _138  and  _139
REMARK   63  A    between atoms: _141  and  _143
REMARK   64  A    between atoms: _143  and  _144
REMARK   65  A    between atoms: _143  and  _146
REMARK   66  A    between atoms: _146  and  _147
REMARK   67  A    between atoms: _150  and  _152
REMARK   68  A    between atoms: _152  and  _153
REMARK   69  A    between atoms: _155  and  _157
REMARK   70  A    between atoms: _157  and  _158
REMARK   71  A    between atoms: _160  and  _162
REMARK   72  A    between atoms: _162  and  _163
REMARK   73  A    between atoms: _162  and  _165
REMARK   74  A    between atoms: _165  and  _166
REMARK   75  A    between atoms: _172  and  _174
REMARK   76  A    between atoms: _174  and  _175
REMARK   77  A    between atoms: _174  and  _177
REMARK   78  A    between atoms: _177  and  _178
REMARK   79  A    between atoms: _181  and  _183
REMARK   80  A    between atoms: _183  and  _184
REMARK   81  A    between atoms: _183  and  _186
REMARK   82  A    between atoms: _189  and  _191
REMARK   83  A    between atoms: _191  and  _192
REMARK   84  A    between atoms: _191  and  _194
REMARK   85  A    between atoms: _194  and  _195
REMARK   86  A    between atoms: _198  and  _200
REMARK   87  A    between atoms: _200  and  _201
REMARK   88  A    between atoms: _200  and  _203
REMARK   89  A    between atoms: _203  and  _204
REMARK   90  A    between atoms: _208  and  _209
REMARK   91  A    between atoms: _214  and  _216
REMARK   92  A    between atoms: _216  and  _217
REMARK   93  A    between atoms: _216  and  _219
REMARK   94  A    between atoms: _222  and  _224
REMARK   95  A    between atoms: _224  and  _225
REMARK   96  A    between atoms: _224  and  _227
REMARK   97  A    between atoms: _227  and  _228
REMARK   98  A    between atoms: _233  and  _235
REMARK   99  A    between atoms: _235  and  _236
REMARK  100  A    between atoms: _235  and  _238
REMARK  101  A    between atoms: _241  and  _243
REMARK  102  A    between atoms: _243  and  _244
REMARK  103  A    between atoms: _243  and  _246
REMARK  104  A    between atoms: _246  and  _247
REMARK  105  A    between atoms: _250  and  _252
REMARK  106  A    between atoms: _252  and  _253
REMARK  107  A    between atoms: _255  and  _257
REMARK  108  A    between atoms: _257  and  _258
REMARK  109  A    between atoms: _257  and  _260
REMARK  110  A    between atoms: _260  and  _261
REMARK  111  A    between atoms: _261  and  _262
REMARK  112  A    between atoms: _262  and  _263
REMARK  113  A    between atoms: _272  and  _274
REMARK  114  A    between atoms: _274  and  _275
REMARK  115  A    between atoms: _274  and  _277
REMARK  116  A    between atoms: _277  and  _278
REMARK  117  A    between atoms: _283  and  _285
REMARK  118  A    between atoms: _285  and  _286
REMARK  119  A    between atoms: _285  and  _288
REMARK  120  A    between atoms: _288  and  _289
REMARK  121  A    between atoms: _289  and  _290
REMARK  122  A    between atoms: _290  and  _291
REMARK  123  A    between atoms: _300  and  _302
REMARK  124  A    between atoms: _302  and  _303
REMARK  125  A    between atoms: _302  and  _305
REMARK  126  A    between atoms: _305  and  _306
REMARK  127  A    between atoms: _309  and  _311
REMARK  128  A    between atoms: _311  and  _312
REMARK  129  A    between atoms: _311  and  _314
REMARK  130  A    between atoms: _314  and  _315
REMARK  131  A    between atoms: _318  and  _320
REMARK  132  A    between atoms: _320  and  _321
REMARK  133  A    between atoms: _320  and  _323
REMARK  134  A    between atoms: _323  and  _324
REMARK  135  A    between atoms: _327  and  _329
REMARK  136  A    between atoms: _329  and  _330
REMARK  137  A    between atoms: _329  and  _332
REMARK  138  A    between atoms: _332  and  _333
REMARK  139  A    between atoms: _336  and  _338
REMARK  140  A    between atoms: _338  and  _339
REMARK  141  A    between atoms: _341  and  _343
REMARK  142  A    between atoms: _343  and  _344
REMARK  143  A    between atoms: _347  and  _349
REMARK  144  A    between atoms: _349  and  _350
REMARK  145  A    between atoms: _349  and  _352
REMARK  146  A    between atoms: _352  and  _353
REMARK  147  A    between atoms: _356  and  _358
REMARK  148  A    between atoms: _358  and  _359
REMARK  149  A    between atoms: _358  and  _361
REMARK  150  A    between atoms: _361  and  _362
REMARK  151  A    between atoms: _365  and  _367
REMARK  152  A    between atoms: _367  and  _368
REMARK  153  A    between atoms: _367  and  _370
REMARK  154  A    between atoms: _370  and  _371
REMARK  155  A    between atoms: _374  and  _376
REMARK  156  A    between atoms: _376  and  _377
REMARK  157  A    between atoms: _376  and  _379
REMARK  158  A    between atoms: _382  and  _384
REMARK  159  A    between atoms: _384  and  _385
REMARK  160  A    between atoms: _384  and  _387
REMARK  161  A    between atoms: _387  and  _388
REMARK  162  A    between atoms: _388  and  _389
REMARK  163  A    between atoms: _389  and  _390
REMARK  164  A    between atoms: _390  and  _391
REMARK  165  A    between atoms: _395  and  _397
REMARK  166  A    between atoms: _397  and  _398
REMARK  167  A    between atoms: _397  and  _400
REMARK  168  A    between atoms: _400  and  _401
REMARK  169  A    between atoms: _401  and  _402
REMARK  170  A    between atoms: _404  and  _406
REMARK  171  A    between atoms: _406  and  _407
REMARK  172  A    between atoms: _406  and  _409
REMARK  173  A    between atoms: _409  and  _410
REMARK  174  A    between atoms: _413  and  _415
REMARK  175  A    between atoms: _415  and  _416
REMARK  176  A    between atoms: _418  and  _420
REMARK  177  A    between atoms: _420  and  _421
REMARK  178  A    between atoms: _423  and  _425
REMARK  179  A    between atoms: _425  and  _426
REMARK  180  A    between atoms: _425  and  _428
REMARK  181  A    between atoms: _426  and  _427
REMARK  182  A    between atoms: _426  and  _432
REMARK  183  A    between atoms: _427  and  _592
REMARK  184  A    between atoms: _428  and  _429
REMARK  185  A    between atoms: _432  and  _434
REMARK  186  A    between atoms: _434  and  _435
REMARK  187  A    between atoms: _437  and  _439
REMARK  188  A    between atoms: _439  and  _440
REMARK  189  A    between atoms: _442  and  _444
REMARK  190  A    between atoms: _444  and  _445
REMARK  191  A    between atoms: _444  and  _447
REMARK  192  A    between atoms: _447  and  _448
REMARK  193  A    between atoms: _454  and  _456
REMARK  194  A    between atoms: _456  and  _457
REMARK  195  A    between atoms: _456  and  _459
REMARK  196  A    between atoms: _459  and  _460
REMARK  197  A    between atoms: _463  and  _465
REMARK  198  A    between atoms: _465  and  _466
REMARK  199  A    between atoms: _465  and  _468
REMARK  200  A    between atoms: _468  and  _469
REMARK  201  A    between atoms: _472  and  _474
REMARK  202  A    between atoms: _474  and  _475
REMARK  203  A    between atoms: _474  and  _477
REMARK  204  A    between atoms: _477  and  _478
REMARK  205  A    between atoms: _482  and  _483
REMARK  206  A    between atoms: _488  and  _490
REMARK  207  A    between atoms: _490  and  _491
REMARK  208  A    between atoms: _490  and  _493
REMARK  209  A    between atoms: _496  and  _498
REMARK  210  A    between atoms: _498  and  _499
REMARK  211  A    between atoms: _498  and  _501
REMARK  212  A    between atoms: _501  and  _502
REMARK  213  A    between atoms: _507  and  _509
REMARK  214  A    between atoms: _509  and  _510
REMARK  215  A    between atoms: _509  and  _512
REMARK  216  A    between atoms: _515  and  _517
REMARK  217  A    between atoms: _517  and  _518
REMARK  218  A    between atoms: _517  and  _520
REMARK  219  A    between atoms: _520  and  _521
REMARK  220  A    between atoms: _524  and  _526
REMARK  221  A    between atoms: _526  and  _527
REMARK  222  A    between atoms: _529  and  _531
REMARK  223  A    between atoms: _531  and  _532
REMARK  224  A    between atoms: _531  and  _534
REMARK  225  A    between atoms: _534  and  _535
REMARK  226  A    between atoms: _535  and  _536
REMARK  227  A    between atoms: _536  and  _537
REMARK  228  A    between atoms: _546  and  _548
REMARK  229  A    between atoms: _548  and  _549
REMARK  230  A    between atoms: _548  and  _551
REMARK  231  A    between atoms: _551  and  _552
REMARK                            x       y       z     vdW  Elec       q    Type
REMARK                         _______ _______ _______ _____ _____    ______ ____
ROOT
ATOM      1  C   VAL A   5      14.385  22.351  26.807  0.00  0.00    +0.241 C 
ATOM      2  N   ILE A   6      13.703  23.425  27.139  0.00  0.00    -0.297 N 
ATOM      3  H   ILE A   6      14.154  24.359  27.060  0.00  0.00    +0.150 HD
ATOM      4  O   VAL A   5      14.003  21.175  27.040  0.00  0.00    -0.273 OA
ENDROOT
BRANCH   2   5
ATOM      5  CA  ILE A   6      12.325  23.336  27.617  0.00  0.00    +0.149 C 
BRANCH   5   6
ATOM      6  C   ILE A   6      11.427  23.577  26.421  0.00  0.00    +0.241 C 
ATOM      7  N   GLY A   7      10.690  22.554  26.026  0.00  0.00    -0.295 N 
ATOM      8  H   GLY A   7      10.728  21.678  26.586  0.00  0.00    +0.150 HD
ATOM      9  O   ILE A   6      11.441  24.688  25.844  0.00  0.00    -0.273 OA
BRANCH   7  10
ATOM     10  CA  GLY A   7       9.841  22.580  24.871  0.00  0.00    +0.176 C 
BRANCH  10  11
ATOM     11  C   GLY A   7       8.405  22.890  25.202  0.00  0.00    +0.243 C 
ATOM     12  O   GLY A   7       8.047  23.140  26.355  0.00  0.00    -0.273 OA
ATOM     13  N   ARG A   8       7.567  22.888  24.163  0.00  0.00    -0.297 N 
ATOM     14  H   ARG A   8       7.896  22.545  23.238  0.00  0.00    +0.150 HD
BRANCH  13  15
ATOM     15  CA  ARG A   8       6.194  23.362  24.311  0.00  0.00    +0.149 C 
BRANCH  15  16
ATOM     16  C   ARG A   8       5.391  22.536  25.295  0.00  0.00    +0.241 C 
ATOM     17  O   ARG A   8       4.484  23.111  25.910  0.00  0.00    -0.273 OA
ATOM     18  N   ASN A   9       5.716  21.258  25.457  0.00  0.00    -0.298 N 
ATOM     19  H   ASN A   9       6.499  20.828  24.924  0.00  0.00    +0.150 HD
BRANCH  18  20
ATOM     20  CA  ASN A   9       4.936  20.483  26.408  0.00  0.00    +0.146 C 
BRANCH  20  21
ATOM     21  C   ASN A   9       4.969  21.077  27.811  0.00  0.00    +0.227 C 
ATOM     22  O   ASN A   9       3.986  20.970  28.546  0.00  0.00    -0.286 OA
ENDBRANCH  20  21
BRANCH  20  23
ATOM     23  CB  ASN A   9       5.405  19.019  26.456  0.00  0.00    +0.112 C 
BRANCH  23  24
ATOM     24  CG  ASN A   9       6.730  18.808  27.117  0.00  0.00    +0.222 C 
ATOM     25  ND2 ASN A   9       6.790  17.908  28.098  0.00  0.00    -0.329 N 
ATOM     26 HD21 ASN A   9       7.692  17.727  28.583  0.00  0.00    +0.145 HD
ATOM     27 HD22 ASN A   9       5.935  17.387  28.379  0.00  0.00    +0.145 HD
ATOM     28  OD1 ASN A   9       7.709  19.461  26.735  0.00  0.00    -0.275 OA
ENDBRANCH  23  24
ENDBRANCH  20  23
ENDBRANCH  18  20
ENDBRANCH  15  16
BRANCH  15  29
ATOM     29  CB  ARG A   8       5.510  23.408  22.932  0.00  0.00    +0.033 C 
BRANCH  29  30
ATOM     30  CG  ARG A   8       6.104  24.461  22.022  0.00  0.00    +0.045 C 
BRANCH  30  31
ATOM     31  CD  ARG A   8       5.320  24.657  20.716  0.00  0.00    +0.174 C 
BRANCH  31  32
ATOM     32  NE  ARG A   8       5.312  23.410  19.936  0.00  0.00    -0.265 N 
ATOM     33  CZ  ARG A   8       4.357  22.497  19.944  0.00  0.00    +0.342 C 
ATOM     34  NH2 ARG A   8       3.218  22.624  20.638  0.00  0.00    -0.292 N 
ATOM     35 HH21 ARG A   8       3.050  23.476  21.210  0.00  0.00    +0.255 HD
ATOM     36 HH22 ARG A   8       2.502  21.870  20.605  0.00  0.00    +0.255 HD
ATOM     37  NH1 ARG A   8       4.558  21.399  19.196  0.00  0.00    -0.292 N 
ATOM     38 HH11 ARG A   8       3.837  20.650  19.168  0.00  0.00    +0.255 HD
ATOM     39 HH12 ARG A   8       5.435  21.298  18.646  0.00  0.00    +0.255 HD
ATOM     40  HE  ARG A   8       6.132  23.231  19.323  0.00  0.00    +0.259 HD
ENDBRANCH  31  32
ENDBRANCH  30  31
ENDBRANCH  29  30
ENDBRANCH  15  29
ENDBRANCH  13  15
ENDBRANCH  10  11
ENDBRANCH   7  10
ENDBRANCH   5   6
BRANCH   5  41
ATOM     41  CB  ILE A   6      12.089  24.366  28.723  0.00  0.00    +0.027 C 
ATOM     42  CG2 ILE A   6      10.636  24.260  29.214  0.00  0.00    +0.002 C 
BRANCH  41  43
ATOM     43  CG1 ILE A   6      13.112  24.288  29.859  0.00  0.00    +0.002 C 
ATOM     44  CD1 ILE A   6      13.178  22.924  30.486  0.00  0.00    +0.000 C 
ENDBRANCH  41  43
ENDBRANCH   5  41
ENDBRANCH   2   5
BRANCH   1  45
ATOM     45  CA  VAL A   5      15.718  22.626  26.146  0.00  0.00    +0.149 C 
BRANCH  45  48
ATOM     46  C   ASN A   4      17.860  22.434  27.318  0.00  0.00    +0.241 C 
ATOM     47  O   ASN A   4      18.032  23.656  27.327  0.00  0.00    -0.273 OA
ATOM     48  N   VAL A   5      16.797  21.825  26.793  0.00  0.00    -0.297 N 
ATOM     49  H   VAL A   5      16.720  20.789  26.835  0.00  0.00    +0.150 HD
BRANCH  46  50
ATOM     50  CA  ASN A   4      18.924  21.505  27.956  0.00  0.00    +0.158 C 
BRANCH  50  52
ATOM     51  C   VAL A   3      20.468  21.584  26.113  0.00  0.00    +0.241 C 
ATOM     52  N   ASN A   4      20.201  21.859  27.383  0.00  0.00    -0.297 N 
ATOM     53  H   ASN A   4      20.917  22.333  27.970  0.00  0.00    +0.150 HD
ATOM     54  O   VAL A   3      19.700  20.941  25.382  0.00  0.00    -0.273 OA
BRANCH  51  55
ATOM     55  CA  VAL A   3      21.783  22.145  25.602  0.00  0.00    +0.149 C 
BRANCH  55  58
ATOM     56  C   PRO A   2      23.502  20.928  24.328  0.00  0.00    +0.241 C 
ATOM     57  O   PRO A   2      24.442  21.531  24.848  0.00  0.00    -0.273 OA
ATOM     58  N   VAL A   3      22.250  21.215  24.565  0.00  0.00    -0.297 N 
ATOM     59  H   VAL A   3      21.530  20.750  23.976  0.00  0.00    +0.150 HD
BRANCH  56  63
ATOM     60  C   THR A   1      22.364  17.993  23.857  0.00  0.00    +0.244 C 
ATOM     61  O   THR A   1      22.994  17.926  24.907  0.00  0.00    -0.273 OA
ATOM     62  N   PRO A   2      22.721  18.916  22.966  0.00  0.00    -0.272 N 
ATOM     63  CA  PRO A   2      23.801  19.843  23.299  0.00  0.00    +0.152 C 
ATOM     64  CB  PRO A   2      24.021  20.606  21.982  0.00  0.00    +0.031 C 
ATOM     65  CG  PRO A   2      23.462  19.690  20.935  0.00  0.00    +0.024 C 
ATOM     66  CD  PRO A   2      22.194  19.161  21.591  0.00  0.00    +0.094 C 
BRANCH  60  67
ATOM     67  CA  THR A   1      21.207  17.059  23.548  0.00  0.00    +0.172 C 
BRANCH  67  68
ATOM     68  N   THR A   1      21.525  15.755  24.084  0.00  0.00    -0.236 NA
ATOM     69  H   THR A   1      21.166  15.477  25.020  0.00  0.00    +0.142 HD
ENDBRANCH  67  68
BRANCH  67  70
ATOM     70  CB  THR A   1      19.880  17.593  24.108  0.00  0.00    +0.135 C 
ATOM     71  CG2 THR A   1      19.860  17.670  25.619  0.00  0.00    +0.034 C 
BRANCH  70  72
ATOM     72  OG1 THR A   1      19.705  18.911  23.555  0.00  0.00    -0.383 OA
ATOM     73  HG1 THR A   1      20.463  19.486  23.829  0.00  0.00    +0.210 HD
ENDBRANCH  70  72
ENDBRANCH  67  70
ENDBRANCH  60  67
ENDBRANCH  56  63
ENDBRANCH  55  58
BRANCH  55  74
ATOM     74  CB  VAL A   3      21.641  23.571  25.081  0.00  0.00    +0.027 C 
ATOM     75  CG2 VAL A   3      22.946  24.151  24.521  0.00  0.00    +0.002 C 
ATOM     76  CG1 VAL A   3      20.572  23.634  24.001  0.00  0.00    +0.002 C 
ENDBRANCH  55  74
ENDBRANCH  51  55
ENDBRANCH  50  52
BRANCH  50  77
ATOM     77  CB  ASN A   4      18.929  21.663  29.471  0.00  0.00    +0.114 C 
BRANCH  77  78
ATOM     78  CG  ASN A   4      19.921  20.778  30.160  0.00  0.00    +0.222 C 
ATOM     79  ND2 ASN A   4      20.490  21.291  31.193  0.00  0.00    -0.329 N 
ATOM     80 HD21 ASN A   4      21.202  20.745  31.719  0.00  0.00    +0.145 HD
ATOM     81 HD22 ASN A   4      20.238  22.251  31.502  0.00  0.00    +0.145 HD
ATOM     82  OD1 ASN A   4      20.142  19.634  29.694  0.00  0.00    -0.275 OA
ENDBRANCH  77  78
ENDBRANCH  50  77
ENDBRANCH  46  50
ENDBRANCH  45  48
BRANCH  45  83
ATOM     83  CB  VAL A   5      15.664  22.456  24.625  0.00  0.00    +0.027 C 
ATOM     84  CG2 VAL A   5      15.299  21.060  24.197  0.00  0.00    +0.002 C 
ATOM     85  CG1 VAL A   5      17.036  22.771  23.989  0.00  0.00    +0.002 C 
ENDBRANCH  45  83
ENDBRANCH   1  45
TORSDOF 31
REMARK  Name = ../refined-set-2016/2qd8/2qd8_pocket.pdb
REMARK  231 active torsions:
REMARK  status: ('A' for Active; 'I' for Inactive)
REMARK    1  A    between atoms: _1  and  _3
REMARK    2  A    between atoms: _3  and  _4
REMARK    3  A    between atoms: _3  and  _6
REMARK    4  A    between atoms: _6  and  _7
REMARK    5  A    between atoms: _7  and  _8
REMARK    6  A    between atoms: _8  and  _9
REMARK    7  A    between atoms: _11  and  _15
REMARK    8  A    between atoms: _18  and  _20
REMARK    9  A    between atoms: _20  and  _21
REMARK   10  A    between atoms: _20  and  _23
REMARK   11  A    between atoms: _23  and  _24
REMARK   12  A    between atoms: _27  and  _29
REMARK   13  A    between atoms: _29  and  _30
REMARK   14  A    between atoms: _29  and  _32
REMARK   15  A    between atoms: _32  and  _33
REMARK   16  A    between atoms: _36  and  _38
REMARK   17  A    between atoms: _38  and  _39
REMARK   18  A    between atoms: _38  and  _41
REMARK   19  A    between atoms: _41  and  _42
REMARK   20  A    between atoms: _45  and  _47
REMARK   21  A    between atoms: _47  and  _48
REMARK   22  A    between atoms: _47  and  _50
REMARK   23  A    between atoms: _50  and  _51
REMARK   24  A    between atoms: _54  and  _56
REMARK   25  A    between atoms: _56  and  _57
REMARK   26  A    between atoms: _59  and  _61
REMARK   27  A    between atoms: _61  and  _62
REMARK   28  A    between atoms: _65  and  _67
REMARK   29  A    between atoms: _67  and  _68
REMARK   30  A    between atoms: _67  and  _70
REMARK   31  A    between atoms: _70  and  _71
REMARK   32  A    between atoms: _74  and  _76
REMARK   33  A    between atoms: _76  and  _77
REMARK   34  A    between atoms: _76  and  _79
REMARK   35  A    between atoms: _79  and  _80
REMARK   36  A    between atoms: _83  and  _85
REMARK   37  A    between atoms: _85  and  _86
REMARK   38  A    between atoms: _85  and  _88
REMARK   39  A    between atoms: _88  and  _89
REMARK   40  A    between atoms: _92  and  _94
REMARK   41  A    between atoms: _94  and  _95
REMARK   42  A    between atoms: _94  and  _97
REMARK   43  A    between atoms: _100  and  _102
REMARK   44  A    between atoms: _102  and  _103
REMARK   45  A    between atoms: _102  and  _105
REMARK   46  A    between atoms: _105  and  _106
REMARK   47  A    between atoms: _106  and  _107
REMARK   48  A    between atoms: _107  and  _108
REMARK   49  A    between atoms: _108  and  _109
REMARK   50  A    between atoms: _113  and  _115
REMARK   51  A    between atoms: _115  and  _116
REMARK   52  A    between atoms: _115  and  _118
REMARK   53  A    between atoms: _118  and  _119
REMARK   54  A    between atoms: _119  and  _120
REMARK   55  A    between atoms: _122  and  _124
REMARK   56  A    between atoms: _124  and  _125
REMARK   57  A    between atoms: _124  and  _127
REMARK   58  A    between atoms: _127  and  _128
REMARK   59  A    between atoms: _131  and  _133
REMARK   60  A    between atoms: _133  and  _134
REMARK   61  A    between atoms: _136  and  _138
REMARK   62  A    between atoms: _138  and  _139
REMARK   63  A    between atoms: _141  and  _143
REMARK   64  A    between atoms: _143  and  _144
REMARK   65  A    between atoms: _143  and  _146
REMARK   66  A    between atoms: _146  and  _147
REMARK   67  A    between atoms: _150  and  _152
REMARK   68  A    between atoms: _152  and  _153
REMARK   69  A    between atoms: _155  and  _157
REMARK   70  A    between atoms: _157  and  _158
REMARK   71  A    between atoms: _160  and  _162
REMARK   72  A    between atoms: _162  and  _163
REMARK   73  A    between atoms: _162  and  _165
REMARK   74  A    between atoms: _165  and  _166
REMARK   75  A    between atoms: _172  and  _174
REMARK   76  A    between atoms: _174  and  _175
REMARK   77  A    between atoms: _174  and  _177
REMARK   78  A    between atoms: _177  and  _178
REMARK   79  A    between atoms: _181  and  _183
REMARK   80  A    between atoms: _183  and  _184
REMARK   81  A    between atoms: _183  and  _186
REMARK   82  A    between atoms: _189  and  _191
REMARK   83  A    between atoms: _191  and  _192
REMARK   84  A    between atoms: _191  and  _194
REMARK   85  A    between atoms: _194  and  _195
REMARK   86  A    between atoms: _198  and  _200
REMARK   87  A    between atoms: _200  and  _201
REMARK   88  A    between atoms: _200  and  _203
REMARK   89  A    between atoms: _203  and  _204
REMARK   90  A    between atoms: _208  and  _209
REMARK   91  A    between atoms: _214  and  _216
REMARK   92  A    between atoms: _216  and  _217
REMARK   93  A    between atoms: _216  and  _219
REMARK   94  A    between atoms: _222  and  _224
REMARK   95  A    between atoms: _224  and  _225
REMARK   96  A    between atoms: _224  and  _227
REMARK   97  A    between atoms: _227  and  _228
REMARK   98  A    between atoms: _233  and  _235
REMARK   99  A    between atoms: _235  and  _236
REMARK  100  A    between atoms: _235  and  _238
REMARK  101  A    between atoms: _241  and  _243
REMARK  102  A    between atoms: _243  and  _244
REMARK  103  A    between atoms: _243  and  _246
REMARK  104  A    between atoms: _246  and  _247
REMARK  105  A    between atoms: _250  and  _252
REMARK  106  A    between atoms: _252  and  _253
REMARK  107  A    between atoms: _255  and  _257
REMARK  108  A    between atoms: _257  and  _258
REMARK  109  A    between atoms: _257  and  _260
REMARK  110  A    between atoms: _260  and  _261
REMARK  111  A    between atoms: _261  and  _262
REMARK  112  A    between atoms: _262  and  _263
REMARK  113  A    between atoms: _272  and  _274
REMARK  114  A    between atoms: _274  and  _275
REMARK  115  A    between atoms: _274  and  _277
REMARK  116  A    between atoms: _277  and  _278
REMARK  117  A    between atoms: _283  and  _285
REMARK  118  A    between atoms: _285  and  _286
REMARK  119  A    between atoms: _285  and  _288
REMARK  120  A    between atoms: _288  and  _289
REMARK  121  A    between atoms: _289  and  _290
REMARK  122  A    between atoms: _290  and  _291
REMARK  123  A    between atoms: _300  and  _302
REMARK  124  A    between atoms: _302  and  _303
REMARK  125  A    between atoms: _302  and  _305
REMARK  126  A    between atoms: _305  and  _306
REMARK  127  A    between atoms: _309  and  _311
REMARK  128  A    between atoms: _311  and  _312
REMARK  129  A    between atoms: _311  and  _314
REMARK  130  A    between atoms: _314  and  _315
REMARK  131  A    between atoms: _318  and  _320
REMARK  132  A    between atoms: _320  and  _321
REMARK  133  A    between atoms: _320  and  _323
REMARK  134  A    between atoms: _323  and  _324
REMARK  135  A    between atoms: _327  and  _329
REMARK  136  A    between atoms: _329  and  _330
REMARK  137  A    between atoms: _329  and  _332
REMARK  138  A    between atoms: _332  and  _333
REMARK  139  A    between atoms: _336  and  _338
REMARK  140  A    between atoms: _338  and  _339
REMARK  141  A    between atoms: _341  and  _343
REMARK  142  A    between atoms: _343  and  _344
REMARK  143  A    between atoms: _347  and  _349
REMARK  144  A    between atoms: _349  and  _350
REMARK  145  A    between atoms: _349  and  _352
REMARK  146  A    between atoms: _352  and  _353
REMARK  147  A    between atoms: _356  and  _358
REMARK  148  A    between atoms: _358  and  _359
REMARK  149  A    between atoms: _358  and  _361
REMARK  150  A    between atoms: _361  and  _362
REMARK  151  A    between atoms: _365  and  _367
REMARK  152  A    between atoms: _367  and  _368
REMARK  153  A    between atoms: _367  and  _370
REMARK  154  A    between atoms: _370  and  _371
REMARK  155  A    between atoms: _374  and  _376
REMARK  156  A    between atoms: _376  and  _377
REMARK  157  A    between atoms: _376  and  _379
REMARK  158  A    between atoms: _382  and  _384
REMARK  159  A    between atoms: _384  and  _385
REMARK  160  A    between atoms: _384  and  _387
REMARK  161  A    between atoms: _387  and  _388
REMARK  162  A    between atoms: _388  and  _389
REMARK  163  A    between atoms: _389  and  _390
REMARK  164  A    between atoms: _390  and  _391
REMARK  165  A    between atoms: _395  and  _397
REMARK  166  A    between atoms: _397  and  _398
REMARK  167  A    between atoms: _397  and  _400
REMARK  168  A    between atoms: _400  and  _401
REMARK  169  A    between atoms: _401  and  _402
REMARK  170  A    between atoms: _404  and  _406
REMARK  171  A    between atoms: _406  and  _407
REMARK  172  A    between atoms: _406  and  _409
REMARK  173  A    between atoms: _409  and  _410
REMARK  174  A    between atoms: _413  and  _415
REMARK  175  A    between atoms: _415  and  _416
REMARK  176  A    between atoms: _418  and  _420
REMARK  177  A    between atoms: _420  and  _421
REMARK  178  A    between atoms: _423  and  _425
REMARK  179  A    between atoms: _425  and  _426
REMARK  180  A    between atoms: _425  and  _428
REMARK  181  A    between atoms: _426  and  _427
REMARK  182  A    between atoms: _426  and  _432
REMARK  183  A    between atoms: _427  and  _592
REMARK  184  A    between atoms: _428  and  _429
REMARK  185  A    between atoms: _432  and  _434
REMARK  186  A    between atoms: _434  and  _435
REMARK  187  A    between atoms: _437  and  _439
REMARK  188  A    between atoms: _439  and  _440
REMARK  189  A    between atoms: _442  and  _444
REMARK  190  A    between atoms: _444  and  _445
REMARK  191  A    between atoms: _444  and  _447
REMARK  192  A    between atoms: _447  and  _448
REMARK  193  A    between atoms: _454  and  _456
REMARK  194  A    between atoms: _456  and  _457
REMARK  195  A    between atoms: _456  and  _459
REMARK  196  A    between atoms: _459  and  _460
REMARK  197  A    between atoms: _463  and  _465
REMARK  198  A    between atoms: _465  and  _466
REMARK  199  A    between atoms: _465  and  _468
REMARK  200  A    between atoms: _468  and  _469
REMARK  201  A    between atoms: _472  and  _474
REMARK  202  A    between atoms: _474  and  _475
REMARK  203  A    between atoms: _474  and  _477
REMARK  204  A    between atoms: _477  and  _478
REMARK  205  A    between atoms: _482  and  _483
REMARK  206  A    between atoms: _488  and  _490
REMARK  207  A    between atoms: _490  and  _491
REMARK  208  A    between atoms: _490  and  _493
REMARK  209  A    between atoms: _496  and  _498
REMARK  210  A    between atoms: _498  and  _499
REMARK  211  A    between atoms: _498  and  _501
REMARK  212  A    between atoms: _501  and  _502
REMARK  213  A    between atoms: _507  and  _509
REMARK  214  A    between atoms: _509  and  _510
REMARK  215  A    between atoms: _509  and  _512
REMARK  216  A    between atoms: _515  and  _517
REMARK  217  A    between atoms: _517  and  _518
REMARK  218  A    between atoms: _517  and  _520
REMARK  219  A    between atoms: _520  and  _521
REMARK  220  A    between atoms: _524  and  _526
REMARK  221  A    between atoms: _526  and  _527
REMARK  222  A    between atoms: _529  and  _531
REMARK  223  A    between atoms: _531  and  _532
REMARK  224  A    between atoms: _531  and  _534
REMARK  225  A    between atoms: _534  and  _535
REMARK  226  A    between atoms: _535  and  _536
REMARK  227  A    between atoms: _536  and  _537
REMARK  228  A    between atoms: _546  and  _548
REMARK  229  A    between atoms: _548  and  _549
REMARK  230  A    between atoms: _548  and  _551
REMARK  231  A    between atoms: _551  and  _552
REMARK                            x       y       z     vdW  Elec       q    Type
REMARK                         _______ _______ _______ _____ _____    ______ ____
ROOT
ATOM      1  O   HOH     1      18.277  30.845  21.602  0.00  0.00    +0.000 OA
ENDROOT
TORSDOF 0
REMARK  Name = ../refined-set-2016/2qd8/2qd8_pocket.pdb
REMARK  231 active torsions:
REMARK  status: ('A' for Active; 'I' for Inactive)
REMARK    1  A    between atoms: _1  and  _3
REMARK    2  A    between atoms: _3  and  _4
REMARK    3  A    between atoms: _3  and  _6
REMARK    4  A    between atoms: _6  and  _7
REMARK    5  A    between atoms: _7  and  _8
REMARK    6  A    between atoms: _8  and  _9
REMARK    7  A    between atoms: _11  and  _15
REMARK    8  A    between atoms: _18  and  _20
REMARK    9  A    between atoms: _20  and  _21
REMARK   10  A    between atoms: _20  and  _23
REMARK   11  A    between atoms: _23  and  _24
REMARK   12  A    between atoms: _27  and  _29
REMARK   13  A    between atoms: _29  and  _30
REMARK   14  A    between atoms: _29  and  _32
REMARK   15  A    between atoms: _32  and  _33
REMARK   16  A    between atoms: _36  and  _38
REMARK   17  A    between atoms: _38  and  _39
REMARK   18  A    between atoms: _38  and  _41
REMARK   19  A    between atoms: _41  and  _42
REMARK   20  A    between atoms: _45  and  _47
REMARK   21  A    between atoms: _47  and  _48
REMARK   22  A    between atoms: _47  and  _50
REMARK   23  A    between atoms: _50  and  _51
REMARK   24  A    between atoms: _54  and  _56
REMARK   25  A    between atoms: _56  and  _57
REMARK   26  A    between atoms: _59  and  _61
REMARK   27  A    between atoms: _61  and  _62
REMARK   28  A    between atoms: _65  and  _67
REMARK   29  A    between atoms: _67  and  _68
REMARK   30  A    between atoms: _67  and  _70
REMARK   31  A    between atoms: _70  and  _71
REMARK   32  A    between atoms: _74  and  _76
REMARK   33  A    between atoms: _76  and  _77
REMARK   34  A    between atoms: _76  and  _79
REMARK   35  A    between atoms: _79  and  _80
REMARK   36  A    between atoms: _83  and  _85
REMARK   37  A    between atoms: _85  and  _86
REMARK   38  A    between atoms: _85  and  _88
REMARK   39  A    between atoms: _88  and  _89
REMARK   40  A    between atoms: _92  and  _94
REMARK   41  A    between atoms: _94  and  _95
REMARK   42  A    between atoms: _94  and  _97
REMARK   43  A    between atoms: _100  and  _102
REMARK   44  A    between atoms: _102  and  _103
REMARK   45  A    between atoms: _102  and  _105
REMARK   46  A    between atoms: _105  and  _106
REMARK   47  A    between atoms: _106  and  _107
REMARK   48  A    between atoms: _107  and  _108
REMARK   49  A    between atoms: _108  and  _109
REMARK   50  A    between atoms: _113  and  _115
REMARK   51  A    between atoms: _115  and  _116
REMARK   52  A    between atoms: _115  and  _118
REMARK   53  A    between atoms: _118  and  _119
REMARK   54  A    between atoms: _119  and  _120
REMARK   55  A    between atoms: _122  and  _124
REMARK   56  A    between atoms: _124  and  _125
REMARK   57  A    between atoms: _124  and  _127
REMARK   58  A    between atoms: _127  and  _128
REMARK   59  A    between atoms: _131  and  _133
REMARK   60  A    between atoms: _133  and  _134
REMARK   61  A    between atoms: _136  and  _138
REMARK   62  A    between atoms: _138  and  _139
REMARK   63  A    between atoms: _141  and  _143
REMARK   64  A    between atoms: _143  and  _144
REMARK   65  A    between atoms: _143  and  _146
REMARK   66  A    between atoms: _146  and  _147
REMARK   67  A    between atoms: _150  and  _152
REMARK   68  A    between atoms: _152  and  _153
REMARK   69  A    between atoms: _155  and  _157
REMARK   70  A    between atoms: _157  and  _158
REMARK   71  A    between atoms: _160  and  _162
REMARK   72  A    between atoms: _162  and  _163
REMARK   73  A    between atoms: _162  and  _165
REMARK   74  A    between atoms: _165  and  _166
REMARK   75  A    between atoms: _172  and  _174
REMARK   76  A    between atoms: _174  and  _175
REMARK   77  A    between atoms: _174  and  _177
REMARK   78  A    between atoms: _177  and  _178
REMARK   79  A    between atoms: _181  and  _183
REMARK   80  A    between atoms: _183  and  _184
REMARK   81  A    between atoms: _183  and  _186
REMARK   82  A    between atoms: _189  and  _191
REMARK   83  A    between atoms: _191  and  _192
REMARK   84  A    between atoms: _191  and  _194
REMARK   85  A    between atoms: _194  and  _195
REMARK   86  A    between atoms: _198  and  _200
REMARK   87  A    between atoms: _200  and  _201
REMARK   88  A    between atoms: _200  and  _203
REMARK   89  A    between atoms: _203  and  _204
REMARK   90  A    between atoms: _208  and  _209
REMARK   91  A    between atoms: _214  and  _216
REMARK   92  A    between atoms: _216  and  _217
REMARK   93  A    between atoms: _216  and  _219
REMARK   94  A    between atoms: _222  and  _224
REMARK   95  A    between atoms: _224  and  _225
REMARK   96  A    between atoms: _224  and  _227
REMARK   97  A    between atoms: _227  and  _228
REMARK   98  A    between atoms: _233  and  _235
REMARK   99  A    between atoms: _235  and  _236
REMARK  100  A    between atoms: _235  and  _238
REMARK  101  A    between atoms: _241  and  _243
REMARK  102  A    between atoms: _243  and  _244
REMARK  103  A    between atoms: _243  and  _246
REMARK  104  A    between atoms: _246  and  _247
REMARK  105  A    between atoms: _250  and  _252
REMARK  106  A    between atoms: _252  and  _253
REMARK  107  A    between atoms: _255  and  _257
REMARK  108  A    between atoms: _257  and  _258
REMARK  109  A    between atoms: _257  and  _260
REMARK  110  A    between atoms: _260  and  _261
REMARK  111  A    between atoms: _261  and  _262
REMARK  112  A    between atoms: _262  and  _263
REMARK  113  A    between atoms: _272  and  _274
REMARK  114  A    between atoms: _274  and  _275
REMARK  115  A    between atoms: _274  and  _277
REMARK  116  A    between atoms: _277  and  _278
REMARK  117  A    between atoms: _283  and  _285
REMARK  118  A    between atoms: _285  and  _286
REMARK  119  A    between atoms: _285  and  _288
REMARK  120  A    between atoms: _288  and  _289
REMARK  121  A    between atoms: _289  and  _290
REMARK  122  A    between atoms: _290  and  _291
REMARK  123  A    between atoms: _300  and  _302
REMARK  124  A    between atoms: _302  and  _303
REMARK  125  A    between atoms: _302  and  _305
REMARK  126  A    between atoms: _305  and  _306
REMARK  127  A    between atoms: _309  and  _311
REMARK  128  A    between atoms: _311  and  _312
REMARK  129  A    between atoms: _311  and  _314
REMARK  130  A    between atoms: _314  and  _315
REMARK  131  A    between atoms: _318  and  _320
REMARK  132  A    between atoms: _320  and  _321
REMARK  133  A    between atoms: _320  and  _323
REMARK  134  A    between atoms: _323  and  _324
REMARK  135  A    between atoms: _327  and  _329
REMARK  136  A    between atoms: _329  and  _330
REMARK  137  A    between atoms: _329  and  _332
REMARK  138  A    between atoms: _332  and  _333
REMARK  139  A    between atoms: _336  and  _338
REMARK  140  A    between atoms: _338  and  _339
REMARK  141  A    between atoms: _341  and  _343
REMARK  142  A    between atoms: _343  and  _344
REMARK  143  A    between atoms: _347  and  _349
REMARK  144  A    between atoms: _349  and  _350
REMARK  145  A    between atoms: _349  and  _352
REMARK  146  A    between atoms: _352  and  _353
REMARK  147  A    between atoms: _356  and  _358
REMARK  148  A    between atoms: _358  and  _359
REMARK  149  A    between atoms: _358  and  _361
REMARK  150  A    between atoms: _361  and  _362
REMARK  151  A    between atoms: _365  and  _367
REMARK  152  A    between atoms: _367  and  _368
REMARK  153  A    between atoms: _367  and  _370
REMARK  154  A    between atoms: _370  and  _371
REMARK  155  A    between atoms: _374  and  _376
REMARK  156  A    between atoms: _376  and  _377
REMARK  157  A    between atoms: _376  and  _379
REMARK  158  A    between atoms: _382  and  _384
REMARK  159  A    between atoms: _384  and  _385
REMARK  160  A    between atoms: _384  and  _387
REMARK  161  A    between atoms: _387  and  _388
REMARK  162  A    between atoms: _388  and  _389
REMARK  163  A    between atoms: _389  and  _390
REMARK  164  A    between atoms: _390  and  _391
REMARK  165  A    between atoms: _395  and  _397
REMARK  166  A    between atoms: _397  and  _398
REMARK  167  A    between atoms: _397  and  _400
REMARK  168  A    between atoms: _400  and  _401
REMARK  169  A    between atoms: _401  and  _402
REMARK  170  A    between atoms: _404  and  _406
REMARK  171  A    between atoms: _406  and  _407
REMARK  172  A    between atoms: _406  and  _409
REMARK  173  A    between atoms: _409  and  _410
REMARK  174  A    between atoms: _413  and  _415
REMARK  175  A    between atoms: _415  and  _416
REMARK  176  A    between atoms: _418  and  _420
REMARK  177  A    between atoms: _420  and  _421
REMARK  178  A    between atoms: _423  and  _425
REMARK  179  A    between atoms: _425  and  _426
REMARK  180  A    between atoms: _425  and  _428
REMARK  181  A    between atoms: _426  and  _427
REMARK  182  A    between atoms: _426  and  _432
REMARK  183  A    between atoms: _427  and  _592
REMARK  184  A    between atoms: _428  and  _429
REMARK  185  A    between atoms: _432  and  _434
REMARK  186  A    between atoms: _434  and  _435
REMARK  187  A    between atoms: _437  and  _439
REMARK  188  A    between atoms: _439  and  _440
REMARK  189  A    between atoms: _442  and  _444
REMARK  190  A    between atoms: _444  and  _445
REMARK  191  A    between atoms: _444  and  _447
REMARK  192  A    between atoms: _447  and  _448
REMARK  193  A    between atoms: _454  and  _456
REMARK  194  A    between atoms: _456  and  _457
REMARK  195  A    between atoms: _456  and  _459
REMARK  196  A    between atoms: _459  and  _460
REMARK  197  A    between atoms: _463  and  _465
REMARK  198  A    between atoms: _465  and  _466
REMARK  199  A    between atoms: _465  and  _468
REMARK  200  A    between atoms: _468  and  _469
REMARK  201  A    between atoms: _472  and  _474
REMARK  202  A    between atoms: _474  and  _475
REMARK  203  A    between atoms: _474  and  _477
REMARK  204  A    between atoms: _477  and  _478
REMARK  205  A    between atoms: _482  and  _483
REMARK  206  A    between atoms: _488  and  _490
REMARK  207  A    between atoms: _490  and  _491
REMARK  208  A    between atoms: _490  and  _493
REMARK  209  A    between atoms: _496  and  _498
REMARK  210  A    between atoms: _498  and  _499
REMARK  211  A    between atoms: _498  and  _501
REMARK  212  A    between atoms: _501  and  _502
REMARK  213  A    between atoms: _507  and  _509
REMARK  214  A    between atoms: _509  and  _510
REMARK  215  A    between atoms: _509  and  _512
REMARK  216  A    between atoms: _515  and  _517
REMARK  217  A    between atoms: _517  and  _518
REMARK  218  A    between atoms: _517  and  _520
REMARK  219  A    between atoms: _520  and  _521
REMARK  220  A    between atoms: _524  and  _526
REMARK  221  A    between atoms: _526  and  _527
REMARK  222  A    between atoms: _529  and  _531
REMARK  223  A    between atoms: _531  and  _532
REMARK  224  A    between atoms: _531  and  _534
REMARK  225  A    between atoms: _534  and  _535
REMARK  226  A    between atoms: _535  and  _536
REMARK  227  A    between atoms: _536  and  _537
REMARK  228  A    between atoms: _546  and  _548
REMARK  229  A    between atoms: _548  and  _549
REMARK  230  A    between atoms: _548  and  _551
REMARK  231  A    between atoms: _551  and  _552
REMARK                            x       y       z     vdW  Elec       q    Type
REMARK                         _______ _______ _______ _____ _____    ______ ____
ROOT
ATOM      1  O   HOH     1      20.801  33.708  10.812  0.00  0.00    +0.000 OA
ENDROOT
TORSDOF 0
REMARK  Name = ../refined-set-2016/2qd8/2qd8_pocket.pdb
REMARK  231 active torsions:
REMARK  status: ('A' for Active; 'I' for Inactive)
REMARK    1  A    between atoms: _1  and  _3
REMARK    2  A    between atoms: _3  and  _4
REMARK    3  A    between atoms: _3  and  _6
REMARK    4  A    between atoms: _6  and  _7
REMARK    5  A    between atoms: _7  and  _8
REMARK    6  A    between atoms: _8  and  _9
REMARK    7  A    between atoms: _11  and  _15
REMARK    8  A    between atoms: _18  and  _20
REMARK    9  A    between atoms: _20  and  _21
REMARK   10  A    between atoms: _20  and  _23
REMARK   11  A    between atoms: _23  and  _24
REMARK   12  A    between atoms: _27  and  _29
REMARK   13  A    between atoms: _29  and  _30
REMARK   14  A    between atoms: _29  and  _32
REMARK   15  A    between atoms: _32  and  _33
REMARK   16  A    between atoms: _36  and  _38
REMARK   17  A    between atoms: _38  and  _39
REMARK   18  A    between atoms: _38  and  _41
REMARK   19  A    between atoms: _41  and  _42
REMARK   20  A    between atoms: _45  and  _47
REMARK   21  A    between atoms: _47  and  _48
REMARK   22  A    between atoms: _47  and  _50
REMARK   23  A    between atoms: _50  and  _51
REMARK   24  A    between atoms: _54  and  _56
REMARK   25  A    between atoms: _56  and  _57
REMARK   26  A    between atoms: _59  and  _61
REMARK   27  A    between atoms: _61  and  _62
REMARK   28  A    between atoms: _65  and  _67
REMARK   29  A    between atoms: _67  and  _68
REMARK   30  A    between atoms: _67  and  _70
REMARK   31  A    between atoms: _70  and  _71
REMARK   32  A    between atoms: _74  and  _76
REMARK   33  A    between atoms: _76  and  _77
REMARK   34  A    between atoms: _76  and  _79
REMARK   35  A    between atoms: _79  and  _80
REMARK   36  A    between atoms: _83  and  _85
REMARK   37  A    between atoms: _85  and  _86
REMARK   38  A    between atoms: _85  and  _88
REMARK   39  A    between atoms: _88  and  _89
REMARK   40  A    between atoms: _92  and  _94
REMARK   41  A    between atoms: _94  and  _95
REMARK   42  A    between atoms: _94  and  _97
REMARK   43  A    between atoms: _100  and  _102
REMARK   44  A    between atoms: _102  and  _103
REMARK   45  A    between atoms: _102  and  _105
REMARK   46  A    between atoms: _105  and  _106
REMARK   47  A    between atoms: _106  and  _107
REMARK   48  A    between atoms: _107  and  _108
REMARK   49  A    between atoms: _108  and  _109
REMARK   50  A    between atoms: _113  and  _115
REMARK   51  A    between atoms: _115  and  _116
REMARK   52  A    between atoms: _115  and  _118
REMARK   53  A    between atoms: _118  and  _119
REMARK   54  A    between atoms: _119  and  _120
REMARK   55  A    between atoms: _122  and  _124
REMARK   56  A    between atoms: _124  and  _125
REMARK   57  A    between atoms: _124  and  _127
REMARK   58  A    between atoms: _127  and  _128
REMARK   59  A    between atoms: _131  and  _133
REMARK   60  A    between atoms: _133  and  _134
REMARK   61  A    between atoms: _136  and  _138
REMARK   62  A    between atoms: _138  and  _139
REMARK   63  A    between atoms: _141  and  _143
REMARK   64  A    between atoms: _143  and  _144
REMARK   65  A    between atoms: _143  and  _146
REMARK   66  A    between atoms: _146  and  _147
REMARK   67  A    between atoms: _150  and  _152
REMARK   68  A    between atoms: _152  and  _153
REMARK   69  A    between atoms: _155  and  _157
REMARK   70  A    between atoms: _157  and  _158
REMARK   71  A    between atoms: _160  and  _162
REMARK   72  A    between atoms: _162  and  _163
REMARK   73  A    between atoms: _162  and  _165
REMARK   74  A    between atoms: _165  and  _166
REMARK   75  A    between atoms: _172  and  _174
REMARK   76  A    between atoms: _174  and  _175
REMARK   77  A    between atoms: _174  and  _177
REMARK   78  A    between atoms: _177  and  _178
REMARK   79  A    between atoms: _181  and  _183
REMARK   80  A    between atoms: _183  and  _184
REMARK   81  A    between atoms: _183  and  _186
REMARK   82  A    between atoms: _189  and  _191
REMARK   83  A    between atoms: _191  and  _192
REMARK   84  A    between atoms: _191  and  _194
REMARK   85  A    between atoms: _194  and  _195
REMARK   86  A    between atoms: _198  and  _200
REMARK   87  A    between atoms: _200  and  _201
REMARK   88  A    between atoms: _200  and  _203
REMARK   89  A    between atoms: _203  and  _204
REMARK   90  A    between atoms: _208  and  _209
REMARK   91  A    between atoms: _214  and  _216
REMARK   92  A    between atoms: _216  and  _217
REMARK   93  A    between atoms: _216  and  _219
REMARK   94  A    between atoms: _222  and  _224
REMARK   95  A    between atoms: _224  and  _225
REMARK   96  A    between atoms: _224  and  _227
REMARK   97  A    between atoms: _227  and  _228
REMARK   98  A    between atoms: _233  and  _235
REMARK   99  A    between atoms: _235  and  _236
REMARK  100  A    between atoms: _235  and  _238
REMARK  101  A    between atoms: _241  and  _243
REMARK  102  A    between atoms: _243  and  _244
REMARK  103  A    between atoms: _243  and  _246
REMARK  104  A    between atoms: _246  and  _247
REMARK  105  A    between atoms: _250  and  _252
REMARK  106  A    between atoms: _252  and  _253
REMARK  107  A    between atoms: _255  and  _257
REMARK  108  A    between atoms: _257  and  _258
REMARK  109  A    between atoms: _257  and  _260
REMARK  110  A    between atoms: _260  and  _261
REMARK  111  A    between atoms: _261  and  _262
REMARK  112  A    between atoms: _262  and  _263
REMARK  113  A    between atoms: _272  and  _274
REMARK  114  A    between atoms: _274  and  _275
REMARK  115  A    between atoms: _274  and  _277
REMARK  116  A    between atoms: _277  and  _278
REMARK  117  A    between atoms: _283  and  _285
REMARK  118  A    between atoms: _285  and  _286
REMARK  119  A    between atoms: _285  and  _288
REMARK  120  A    between atoms: _288  and  _289
REMARK  121  A    between atoms: _289  and  _290
REMARK  122  A    between atoms: _290  and  _291
REMARK  123  A    between atoms: _300  and  _302
REMARK  124  A    between atoms: _302  and  _303
REMARK  125  A    between atoms: _302  and  _305
REMARK  126  A    between atoms: _305  and  _306
REMARK  127  A    between atoms: _309  and  _311
REMARK  128  A    between atoms: _311  and  _312
REMARK  129  A    between atoms: _311  and  _314
REMARK  130  A    between atoms: _314  and  _315
REMARK  131  A    between atoms: _318  and  _320
REMARK  132  A    between atoms: _320  and  _321
REMARK  133  A    between atoms: _320  and  _323
REMARK  134  A    between atoms: _323  and  _324
REMARK  135  A    between atoms: _327  and  _329
REMARK  136  A    between atoms: _329  and  _330
REMARK  137  A    between atoms: _329  and  _332
REMARK  138  A    between atoms: _332  and  _333
REMARK  139  A    between atoms: _336  and  _338
REMARK  140  A    between atoms: _338  and  _339
REMARK  141  A    between atoms: _341  and  _343
REMARK  142  A    between atoms: _343  and  _344
REMARK  143  A    between atoms: _347  and  _349
REMARK  144  A    between atoms: _349  and  _350
REMARK  145  A    between atoms: _349  and  _352
REMARK  146  A    between atoms: _352  and  _353
REMARK  147  A    between atoms: _356  and  _358
REMARK  148  A    between atoms: _358  and  _359
REMARK  149  A    between atoms: _358  and  _361
REMARK  150  A    between atoms: _361  and  _362
REMARK  151  A    between atoms: _365  and  _367
REMARK  152  A    between atoms: _367  and  _368
REMARK  153  A    between atoms: _367  and  _370
REMARK  154  A    between atoms: _370  and  _371
REMARK  155  A    between atoms: _374  and  _376
REMARK  156  A    between atoms: _376  and  _377
REMARK  157  A    between atoms: _376  and  _379
REMARK  158  A    between atoms: _382  and  _384
REMARK  159  A    between atoms: _384  and  _385
REMARK  160  A    between atoms: _384  and  _387
REMARK  161  A    between atoms: _387  and  _388
REMARK  162  A    between atoms: _388  and  _389
REMARK  163  A    between atoms: _389  and  _390
REMARK  164  A    between atoms: _390  and  _391
REMARK  165  A    between atoms: _395  and  _397
REMARK  166  A    between atoms: _397  and  _398
REMARK  167  A    between atoms: _397  and  _400
REMARK  168  A    between atoms: _400  and  _401
REMARK  169  A    between atoms: _401  and  _402
REMARK  170  A    between atoms: _404  and  _406
REMARK  171  A    between atoms: _406  and  _407
REMARK  172  A    between atoms: _406  and  _409
REMARK  173  A    between atoms: _409  and  _410
REMARK  174  A    between atoms: _413  and  _415
REMARK  175  A    between atoms: _415  and  _416
REMARK  176  A    between atoms: _418  and  _420
REMARK  177  A    between atoms: _420  and  _421
REMARK  178  A    between atoms: _423  and  _425
REMARK  179  A    between atoms: _425  and  _426
REMARK  180  A    between atoms: _425  and  _428
REMARK  181  A    between atoms: _426  and  _427
REMARK  182  A    between atoms: _426  and  _432
REMARK  183  A    between atoms: _427  and  _592
REMARK  184  A    between atoms: _428  and  _429
REMARK  185  A    between atoms: _432  and  _434
REMARK  186  A    between atoms: _434  and  _435
REMARK  187  A    between atoms: _437  and  _439
REMARK  188  A    between atoms: _439  and  _440
REMARK  189  A    between atoms: _442  and  _444
REMARK  190  A    between atoms: _444  and  _445
REMARK  191  A    between atoms: _444  and  _447
REMARK  192  A    between atoms: _447  and  _448
REMARK  193  A    between atoms: _454  and  _456
REMARK  194  A    between atoms: _456  and  _457
REMARK  195  A    between atoms: _456  and  _459
REMARK  196  A    between atoms: _459  and  _460
REMARK  197  A    between atoms: _463  and  _465
REMARK  198  A    between atoms: _465  and  _466
REMARK  199  A    between atoms: _465  and  _468
REMARK  200  A    between atoms: _468  and  _469
REMARK  201  A    between atoms: _472  and  _474
REMARK  202  A    between atoms: _474  and  _475
REMARK  203  A    between atoms: _474  and  _477
REMARK  204  A    between atoms: _477  and  _478
REMARK  205  A    between atoms: _482  and  _483
REMARK  206  A    between atoms: _488  and  _490
REMARK  207  A    between atoms: _490  and  _491
REMARK  208  A    between atoms: _490  and  _493
REMARK  209  A    between atoms: _496  and  _498
REMARK  210  A    between atoms: _498  and  _499
REMARK  211  A    between atoms: _498  and  _501
REMARK  212  A    between atoms: _501  and  _502
REMARK  213  A    between atoms: _507  and  _509
REMARK  214  A    between atoms: _509  and  _510
REMARK  215  A    between atoms: _509  and  _512
REMARK  216  A    between atoms: _515  and  _517
REMARK  217  A    between atoms: _517  and  _518
REMARK  218  A    between atoms: _517  and  _520
REMARK  219  A    between atoms: _520  and  _521
REMARK  220  A    between atoms: _524  and  _526
REMARK  221  A    between atoms: _526  and  _527
REMARK  222  A    between atoms: _529  and  _531
REMARK  223  A    between atoms: _531  and  _532
REMARK  224  A    between atoms: _531  and  _534
REMARK  225  A    between atoms: _534  and  _535
REMARK  226  A    between atoms: _535  and  _536
REMARK  227  A    between atoms: _536  and  _537
REMARK  228  A    between atoms: _546  and  _548
REMARK  229  A    between atoms: _548  and  _549
REMARK  230  A    between atoms: _548  and  _551
REMARK  231  A    between atoms: _551  and  _552
REMARK                            x       y       z     vdW  Elec       q    Type
REMARK                         _______ _______ _______ _____ _____    ______ ____
ROOT
ATOM      1  O   HOH     1      21.083  35.670  17.500  0.00  0.00    +0.000 OA
ENDROOT
TORSDOF 0
REMARK  Name = ../refined-set-2016/2qd8/2qd8_pocket.pdb
REMARK  231 active torsions:
REMARK  status: ('A' for Active; 'I' for Inactive)
REMARK    1  A    between atoms: _1  and  _3
REMARK    2  A    between atoms: _3  and  _4
REMARK    3  A    between atoms: _3  and  _6
REMARK    4  A    between atoms: _6  and  _7
REMARK    5  A    between atoms: _7  and  _8
REMARK    6  A    between atoms: _8  and  _9
REMARK    7  A    between atoms: _11  and  _15
REMARK    8  A    between atoms: _18  and  _20
REMARK    9  A    between atoms: _20  and  _21
REMARK   10  A    between atoms: _20  and  _23
REMARK   11  A    between atoms: _23  and  _24
REMARK   12  A    between atoms: _27  and  _29
REMARK   13  A    between atoms: _29  and  _30
REMARK   14  A    between atoms: _29  and  _32
REMARK   15  A    between atoms: _32  and  _33
REMARK   16  A    between atoms: _36  and  _38
REMARK   17  A    between atoms: _38  and  _39
REMARK   18  A    between atoms: _38  and  _41
REMARK   19  A    between atoms: _41  and  _42
REMARK   20  A    between atoms: _45  and  _47
REMARK   21  A    between atoms: _47  and  _48
REMARK   22  A    between atoms: _47  and  _50
REMARK   23  A    between atoms: _50  and  _51
REMARK   24  A    between atoms: _54  and  _56
REMARK   25  A    between atoms: _56  and  _57
REMARK   26  A    between atoms: _59  and  _61
REMARK   27  A    between atoms: _61  and  _62
REMARK   28  A    between atoms: _65  and  _67
REMARK   29  A    between atoms: _67  and  _68
REMARK   30  A    between atoms: _67  and  _70
REMARK   31  A    between atoms: _70  and  _71
REMARK   32  A    between atoms: _74  and  _76
REMARK   33  A    between atoms: _76  and  _77
REMARK   34  A    between atoms: _76  and  _79
REMARK   35  A    between atoms: _79  and  _80
REMARK   36  A    between atoms: _83  and  _85
REMARK   37  A    between atoms: _85  and  _86
REMARK   38  A    between atoms: _85  and  _88
REMARK   39  A    between atoms: _88  and  _89
REMARK   40  A    between atoms: _92  and  _94
REMARK   41  A    between atoms: _94  and  _95
REMARK   42  A    between atoms: _94  and  _97
REMARK   43  A    between atoms: _100  and  _102
REMARK   44  A    between atoms: _102  and  _103
REMARK   45  A    between atoms: _102  and  _105
REMARK   46  A    between atoms: _105  and  _106
REMARK   47  A    between atoms: _106  and  _107
REMARK   48  A    between atoms: _107  and  _108
REMARK   49  A    between atoms: _108  and  _109
REMARK   50  A    between atoms: _113  and  _115
REMARK   51  A    between atoms: _115  and  _116
REMARK   52  A    between atoms: _115  and  _118
REMARK   53  A    between atoms: _118  and  _119
REMARK   54  A    between atoms: _119  and  _120
REMARK   55  A    between atoms: _122  and  _124
REMARK   56  A    between atoms: _124  and  _125
REMARK   57  A    between atoms: _124  and  _127
REMARK   58  A    between atoms: _127  and  _128
REMARK   59  A    between atoms: _131  and  _133
REMARK   60  A    between atoms: _133  and  _134
REMARK   61  A    between atoms: _136  and  _138
REMARK   62  A    between atoms: _138  and  _139
REMARK   63  A    between atoms: _141  and  _143
REMARK   64  A    between atoms: _143  and  _144
REMARK   65  A    between atoms: _143  and  _146
REMARK   66  A    between atoms: _146  and  _147
REMARK   67  A    between atoms: _150  and  _152
REMARK   68  A    between atoms: _152  and  _153
REMARK   69  A    between atoms: _155  and  _157
REMARK   70  A    between atoms: _157  and  _158
REMARK   71  A    between atoms: _160  and  _162
REMARK   72  A    between atoms: _162  and  _163
REMARK   73  A    between atoms: _162  and  _165
REMARK   74  A    between atoms: _165  and  _166
REMARK   75  A    between atoms: _172  and  _174
REMARK   76  A    between atoms: _174  and  _175
REMARK   77  A    between atoms: _174  and  _177
REMARK   78  A    between atoms: _177  and  _178
REMARK   79  A    between atoms: _181  and  _183
REMARK   80  A    between atoms: _183  and  _184
REMARK   81  A    between atoms: _183  and  _186
REMARK   82  A    between atoms: _189  and  _191
REMARK   83  A    between atoms: _191  and  _192
REMARK   84  A    between atoms: _191  and  _194
REMARK   85  A    between atoms: _194  and  _195
REMARK   86  A    between atoms: _198  and  _200
REMARK   87  A    between atoms: _200  and  _201
REMARK   88  A    between atoms: _200  and  _203
REMARK   89  A    between atoms: _203  and  _204
REMARK   90  A    between atoms: _208  and  _209
REMARK   91  A    between atoms: _214  and  _216
REMARK   92  A    between atoms: _216  and  _217
REMARK   93  A    between atoms: _216  and  _219
REMARK   94  A    between atoms: _222  and  _224
REMARK   95  A    between atoms: _224  and  _225
REMARK   96  A    between atoms: _224  and  _227
REMARK   97  A    between atoms: _227  and  _228
REMARK   98  A    between atoms: _233  and  _235
REMARK   99  A    between atoms: _235  and  _236
REMARK  100  A    between atoms: _235  and  _238
REMARK  101  A    between atoms: _241  and  _243
REMARK  102  A    between atoms: _243  and  _244
REMARK  103  A    between atoms: _243  and  _246
REMARK  104  A    between atoms: _246  and  _247
REMARK  105  A    between atoms: _250  and  _252
REMARK  106  A    between atoms: _252  and  _253
REMARK  107  A    between atoms: _255  and  _257
REMARK  108  A    between atoms: _257  and  _258
REMARK  109  A    between atoms: _257  and  _260
REMARK  110  A    between atoms: _260  and  _261
REMARK  111  A    between atoms: _261  and  _262
REMARK  112  A    between atoms: _262  and  _263
REMARK  113  A    between atoms: _272  and  _274
REMARK  114  A    between atoms: _274  and  _275
REMARK  115  A    between atoms: _274  and  _277
REMARK  116  A    between atoms: _277  and  _278
REMARK  117  A    between atoms: _283  and  _285
REMARK  118  A    between atoms: _285  and  _286
REMARK  119  A    between atoms: _285  and  _288
REMARK  120  A    between atoms: _288  and  _289
REMARK  121  A    between atoms: _289  and  _290
REMARK  122  A    between atoms: _290  and  _291
REMARK  123  A    between atoms: _300  and  _302
REMARK  124  A    between atoms: _302  and  _303
REMARK  125  A    between atoms: _302  and  _305
REMARK  126  A    between atoms: _305  and  _306
REMARK  127  A    between atoms: _309  and  _311
REMARK  128  A    between atoms: _311  and  _312
REMARK  129  A    between atoms: _311  and  _314
REMARK  130  A    between atoms: _314  and  _315
REMARK  131  A    between atoms: _318  and  _320
REMARK  132  A    between atoms: _320  and  _321
REMARK  133  A    between atoms: _320  and  _323
REMARK  134  A    between atoms: _323  and  _324
REMARK  135  A    between atoms: _327  and  _329
REMARK  136  A    between atoms: _329  and  _330
REMARK  137  A    between atoms: _329  and  _332
REMARK  138  A    between atoms: _332  and  _333
REMARK  139  A    between atoms: _336  and  _338
REMARK  140  A    between atoms: _338  and  _339
REMARK  141  A    between atoms: _341  and  _343
REMARK  142  A    between atoms: _343  and  _344
REMARK  143  A    between atoms: _347  and  _349
REMARK  144  A    between atoms: _349  and  _350
REMARK  145  A    between atoms: _349  and  _352
REMARK  146  A    between atoms: _352  and  _353
REMARK  147  A    between atoms: _356  and  _358
REMARK  148  A    between atoms: _358  and  _359
REMARK  149  A    between atoms: _358  and  _361
REMARK  150  A    between atoms: _361  and  _362
REMARK  151  A    between atoms: _365  and  _367
REMARK  152  A    between atoms: _367  and  _368
REMARK  153  A    between atoms: _367  and  _370
REMARK  154  A    between atoms: _370  and  _371
REMARK  155  A    between atoms: _374  and  _376
REMARK  156  A    between atoms: _376  and  _377
REMARK  157  A    between atoms: _376  and  _379
REMARK  158  A    between atoms: _382  and  _384
REMARK  159  A    between atoms: _384  and  _385
REMARK  160  A    between atoms: _384  and  _387
REMARK  161  A    between atoms: _387  and  _388
REMARK  162  A    between atoms: _388  and  _389
REMARK  163  A    between atoms: _389  and  _390
REMARK  164  A    between atoms: _390  and  _391
REMARK  165  A    between atoms: _395  and  _397
REMARK  166  A    between atoms: _397  and  _398
REMARK  167  A    between atoms: _397  and  _400
REMARK  168  A    between atoms: _400  and  _401
REMARK  169  A    between atoms: _401  and  _402
REMARK  170  A    between atoms: _404  and  _406
REMARK  171  A    between atoms: _406  and  _407
REMARK  172  A    between atoms: _406  and  _409
REMARK  173  A    between atoms: _409  and  _410
REMARK  174  A    between atoms: _413  and  _415
REMARK  175  A    between atoms: _415  and  _416
REMARK  176  A    between atoms: _418  and  _420
REMARK  177  A    between atoms: _420  and  _421
REMARK  178  A    between atoms: _423  and  _425
REMARK  179  A    between atoms: _425  and  _426
REMARK  180  A    between atoms: _425  and  _428
REMARK  181  A    between atoms: _426  and  _427
REMARK  182  A    between atoms: _426  and  _432
REMARK  183  A    between atoms: _427  and  _592
REMARK  184  A    between atoms: _428  and  _429
REMARK  185  A    between atoms: _432  and  _434
REMARK  186  A    between atoms: _434  and  _435
REMARK  187  A    between atoms: _437  and  _439
REMARK  188  A    between atoms: _439  and  _440
REMARK  189  A    between atoms: _442  and  _444
REMARK  190  A    between atoms: _444  and  _445
REMARK  191  A    between atoms: _444  and  _447
REMARK  192  A    between atoms: _447  and  _448
REMARK  193  A    between atoms: _454  and  _456
REMARK  194  A    between atoms: _456  and  _457
REMARK  195  A    between atoms: _456  and  _459
REMARK  196  A    between atoms: _459  and  _460
REMARK  197  A    between atoms: _463  and  _465
REMARK  198  A    between atoms: _465  and  _466
REMARK  199  A    between atoms: _465  and  _468
REMARK  200  A    between atoms: _468  and  _469
REMARK  201  A    between atoms: _472  and  _474
REMARK  202  A    between atoms: _474  and  _475
REMARK  203  A    between atoms: _474  and  _477
REMARK  204  A    between atoms: _477  and  _478
REMARK  205  A    between atoms: _482  and  _483
REMARK  206  A    between atoms: _488  and  _490
REMARK  207  A    between atoms: _490  and  _491
REMARK  208  A    between atoms: _490  and  _493
REMARK  209  A    between atoms: _496  and  _498
REMARK  210  A    between atoms: _498  and  _499
REMARK  211  A    between atoms: _498  and  _501
REMARK  212  A    between atoms: _501  and  _502
REMARK  213  A    between atoms: _507  and  _509
REMARK  214  A    between atoms: _509  and  _510
REMARK  215  A    between atoms: _509  and  _512
REMARK  216  A    between atoms: _515  and  _517
REMARK  217  A    between atoms: _517  and  _518
REMARK  218  A    between atoms: _517  and  _520
REMARK  219  A    between atoms: _520  and  _521
REMARK  220  A    between atoms: _524  and  _526
REMARK  221  A    between atoms: _526  and  _527
REMARK  222  A    between atoms: _529  and  _531
REMARK  223  A    between atoms: _531  and  _532
REMARK  224  A    between atoms: _531  and  _534
REMARK  225  A    between atoms: _534  and  _535
REMARK  226  A    between atoms: _535  and  _536
REMARK  227  A    between atoms: _536  and  _537
REMARK  228  A    between atoms: _546  and  _548
REMARK  229  A    between atoms: _548  and  _549
REMARK  230  A    between atoms: _548  and  _551
REMARK  231  A    between atoms: _551  and  _552
REMARK                            x       y       z     vdW  Elec       q    Type
REMARK                         _______ _______ _______ _____ _____    ______ ____
ROOT
ATOM      1  O   HOH     1      25.997  25.817  16.147  0.00  0.00    +0.000 OA
ENDROOT
TORSDOF 0
REMARK  Name = ../refined-set-2016/2qd8/2qd8_pocket.pdb
REMARK  231 active torsions:
REMARK  status: ('A' for Active; 'I' for Inactive)
REMARK    1  A    between atoms: _1  and  _3
REMARK    2  A    between atoms: _3  and  _4
REMARK    3  A    between atoms: _3  and  _6
REMARK    4  A    between atoms: _6  and  _7
REMARK    5  A    between atoms: _7  and  _8
REMARK    6  A    between atoms: _8  and  _9
REMARK    7  A    between atoms: _11  and  _15
REMARK    8  A    between atoms: _18  and  _20
REMARK    9  A    between atoms: _20  and  _21
REMARK   10  A    between atoms: _20  and  _23
REMARK   11  A    between atoms: _23  and  _24
REMARK   12  A    between atoms: _27  and  _29
REMARK   13  A    between atoms: _29  and  _30
REMARK   14  A    between atoms: _29  and  _32
REMARK   15  A    between atoms: _32  and  _33
REMARK   16  A    between atoms: _36  and  _38
REMARK   17  A    between atoms: _38  and  _39
REMARK   18  A    between atoms: _38  and  _41
REMARK   19  A    between atoms: _41  and  _42
REMARK   20  A    between atoms: _45  and  _47
REMARK   21  A    between atoms: _47  and  _48
REMARK   22  A    between atoms: _47  and  _50
REMARK   23  A    between atoms: _50  and  _51
REMARK   24  A    between atoms: _54  and  _56
REMARK   25  A    between atoms: _56  and  _57
REMARK   26  A    between atoms: _59  and  _61
REMARK   27  A    between atoms: _61  and  _62
REMARK   28  A    between atoms: _65  and  _67
REMARK   29  A    between atoms: _67  and  _68
REMARK   30  A    between atoms: _67  and  _70
REMARK   31  A    between atoms: _70  and  _71
REMARK   32  A    between atoms: _74  and  _76
REMARK   33  A    between atoms: _76  and  _77
REMARK   34  A    between atoms: _76  and  _79
REMARK   35  A    between atoms: _79  and  _80
REMARK   36  A    between atoms: _83  and  _85
REMARK   37  A    between atoms: _85  and  _86
REMARK   38  A    between atoms: _85  and  _88
REMARK   39  A    between atoms: _88  and  _89
REMARK   40  A    between atoms: _92  and  _94
REMARK   41  A    between atoms: _94  and  _95
REMARK   42  A    between atoms: _94  and  _97
REMARK   43  A    between atoms: _100  and  _102
REMARK   44  A    between atoms: _102  and  _103
REMARK   45  A    between atoms: _102  and  _105
REMARK   46  A    between atoms: _105  and  _106
REMARK   47  A    between atoms: _106  and  _107
REMARK   48  A    between atoms: _107  and  _108
REMARK   49  A    between atoms: _108  and  _109
REMARK   50  A    between atoms: _113  and  _115
REMARK   51  A    between atoms: _115  and  _116
REMARK   52  A    between atoms: _115  and  _118
REMARK   53  A    between atoms: _118  and  _119
REMARK   54  A    between atoms: _119  and  _120
REMARK   55  A    between atoms: _122  and  _124
REMARK   56  A    between atoms: _124  and  _125
REMARK   57  A    between atoms: _124  and  _127
REMARK   58  A    between atoms: _127  and  _128
REMARK   59  A    between atoms: _131  and  _133
REMARK   60  A    between atoms: _133  and  _134
REMARK   61  A    between atoms: _136  and  _138
REMARK   62  A    between atoms: _138  and  _139
REMARK   63  A    between atoms: _141  and  _143
REMARK   64  A    between atoms: _143  and  _144
REMARK   65  A    between atoms: _143  and  _146
REMARK   66  A    between atoms: _146  and  _147
REMARK   67  A    between atoms: _150  and  _152
REMARK   68  A    between atoms: _152  and  _153
REMARK   69  A    between atoms: _155  and  _157
REMARK   70  A    between atoms: _157  and  _158
REMARK   71  A    between atoms: _160  and  _162
REMARK   72  A    between atoms: _162  and  _163
REMARK   73  A    between atoms: _162  and  _165
REMARK   74  A    between atoms: _165  and  _166
REMARK   75  A    between atoms: _172  and  _174
REMARK   76  A    between atoms: _174  and  _175
REMARK   77  A    between atoms: _174  and  _177
REMARK   78  A    between atoms: _177  and  _178
REMARK   79  A    between atoms: _181  and  _183
REMARK   80  A    between atoms: _183  and  _184
REMARK   81  A    between atoms: _183  and  _186
REMARK   82  A    between atoms: _189  and  _191
REMARK   83  A    between atoms: _191  and  _192
REMARK   84  A    between atoms: _191  and  _194
REMARK   85  A    between atoms: _194  and  _195
REMARK   86  A    between atoms: _198  and  _200
REMARK   87  A    between atoms: _200  and  _201
REMARK   88  A    between atoms: _200  and  _203
REMARK   89  A    between atoms: _203  and  _204
REMARK   90  A    between atoms: _208  and  _209
REMARK   91  A    between atoms: _214  and  _216
REMARK   92  A    between atoms: _216  and  _217
REMARK   93  A    between atoms: _216  and  _219
REMARK   94  A    between atoms: _222  and  _224
REMARK   95  A    between atoms: _224  and  _225
REMARK   96  A    between atoms: _224  and  _227
REMARK   97  A    between atoms: _227  and  _228
REMARK   98  A    between atoms: _233  and  _235
REMARK   99  A    between atoms: _235  and  _236
REMARK  100  A    between atoms: _235  and  _238
REMARK  101  A    between atoms: _241  and  _243
REMARK  102  A    between atoms: _243  and  _244
REMARK  103  A    between atoms: _243  and  _246
REMARK  104  A    between atoms: _246  and  _247
REMARK  105  A    between atoms: _250  and  _252
REMARK  106  A    between atoms: _252  and  _253
REMARK  107  A    between atoms: _255  and  _257
REMARK  108  A    between atoms: _257  and  _258
REMARK  109  A    between atoms: _257  and  _260
REMARK  110  A    between atoms: _260  and  _261
REMARK  111  A    between atoms: _261  and  _262
REMARK  112  A    between atoms: _262  and  _263
REMARK  113  A    between atoms: _272  and  _274
REMARK  114  A    between atoms: _274  and  _275
REMARK  115  A    between atoms: _274  and  _277
REMARK  116  A    between atoms: _277  and  _278
REMARK  117  A    between atoms: _283  and  _285
REMARK  118  A    between atoms: _285  and  _286
REMARK  119  A    between atoms: _285  and  _288
REMARK  120  A    between atoms: _288  and  _289
REMARK  121  A    between atoms: _289  and  _290
REMARK  122  A    between atoms: _290  and  _291
REMARK  123  A    between atoms: _300  and  _302
REMARK  124  A    between atoms: _302  and  _303
REMARK  125  A    between atoms: _302  and  _305
REMARK  126  A    between atoms: _305  and  _306
REMARK  127  A    between atoms: _309  and  _311
REMARK  128  A    between atoms: _311  and  _312
REMARK  129  A    between atoms: _311  and  _314
REMARK  130  A    between atoms: _314  and  _315
REMARK  131  A    between atoms: _318  and  _320
REMARK  132  A    between atoms: _320  and  _321
REMARK  133  A    between atoms: _320  and  _323
REMARK  134  A    between atoms: _323  and  _324
REMARK  135  A    between atoms: _327  and  _329
REMARK  136  A    between atoms: _329  and  _330
REMARK  137  A    between atoms: _329  and  _332
REMARK  138  A    between atoms: _332  and  _333
REMARK  139  A    between atoms: _336  and  _338
REMARK  140  A    between atoms: _338  and  _339
REMARK  141  A    between atoms: _341  and  _343
REMARK  142  A    between atoms: _343  and  _344
REMARK  143  A    between atoms: _347  and  _349
REMARK  144  A    between atoms: _349  and  _350
REMARK  145  A    between atoms: _349  and  _352
REMARK  146  A    between atoms: _352  and  _353
REMARK  147  A    between atoms: _356  and  _358
REMARK  148  A    between atoms: _358  and  _359
REMARK  149  A    between atoms: _358  and  _361
REMARK  150  A    between atoms: _361  and  _362
REMARK  151  A    between atoms: _365  and  _367
REMARK  152  A    between atoms: _367  and  _368
REMARK  153  A    between atoms: _367  and  _370
REMARK  154  A    between atoms: _370  and  _371
REMARK  155  A    between atoms: _374  and  _376
REMARK  156  A    between atoms: _376  and  _377
REMARK  157  A    between atoms: _376  and  _379
REMARK  158  A    between atoms: _382  and  _384
REMARK  159  A    between atoms: _384  and  _385
REMARK  160  A    between atoms: _384  and  _387
REMARK  161  A    between atoms: _387  and  _388
REMARK  162  A    between atoms: _388  and  _389
REMARK  163  A    between atoms: _389  and  _390
REMARK  164  A    between atoms: _390  and  _391
REMARK  165  A    between atoms: _395  and  _397
REMARK  166  A    between atoms: _397  and  _398
REMARK  167  A    between atoms: _397  and  _400
REMARK  168  A    between atoms: _400  and  _401
REMARK  169  A    between atoms: _401  and  _402
REMARK  170  A    between atoms: _404  and  _406
REMARK  171  A    between atoms: _406  and  _407
REMARK  172  A    between atoms: _406  and  _409
REMARK  173  A    between atoms: _409  and  _410
REMARK  174  A    between atoms: _413  and  _415
REMARK  175  A    between atoms: _415  and  _416
REMARK  176  A    between atoms: _418  and  _420
REMARK  177  A    between atoms: _420  and  _421
REMARK  178  A    between atoms: _423  and  _425
REMARK  179  A    between atoms: _425  and  _426
REMARK  180  A    between atoms: _425  and  _428
REMARK  181  A    between atoms: _426  and  _427
REMARK  182  A    between atoms: _426  and  _432
REMARK  183  A    between atoms: _427  and  _592
REMARK  184  A    between atoms: _428  and  _429
REMARK  185  A    between atoms: _432  and  _434
REMARK  186  A    between atoms: _434  and  _435
REMARK  187  A    between atoms: _437  and  _439
REMARK  188  A    between atoms: _439  and  _440
REMARK  189  A    between atoms: _442  and  _444
REMARK  190  A    between atoms: _444  and  _445
REMARK  191  A    between atoms: _444  and  _447
REMARK  192  A    between atoms: _447  and  _448
REMARK  193  A    between atoms: _454  and  _456
REMARK  194  A    between atoms: _456  and  _457
REMARK  195  A    between atoms: _456  and  _459
REMARK  196  A    between atoms: _459  and  _460
REMARK  197  A    between atoms: _463  and  _465
REMARK  198  A    between atoms: _465  and  _466
REMARK  199  A    between atoms: _465  and  _468
REMARK  200  A    between atoms: _468  and  _469
REMARK  201  A    between atoms: _472  and  _474
REMARK  202  A    between atoms: _474  and  _475
REMARK  203  A    between atoms: _474  and  _477
REMARK  204  A    between atoms: _477  and  _478
REMARK  205  A    between atoms: _482  and  _483
REMARK  206  A    between atoms: _488  and  _490
REMARK  207  A    between atoms: _490  and  _491
REMARK  208  A    between atoms: _490  and  _493
REMARK  209  A    between atoms: _496  and  _498
REMARK  210  A    between atoms: _498  and  _499
REMARK  211  A    between atoms: _498  and  _501
REMARK  212  A    between atoms: _501  and  _502
REMARK  213  A    between atoms: _507  and  _509
REMARK  214  A    between atoms: _509  and  _510
REMARK  215  A    between atoms: _509  and  _512
REMARK  216  A    between atoms: _515  and  _517
REMARK  217  A    between atoms: _517  and  _518
REMARK  218  A    between atoms: _517  and  _520
REMARK  219  A    between atoms: _520  and  _521
REMARK  220  A    between atoms: _524  and  _526
REMARK  221  A    between atoms: _526  and  _527
REMARK  222  A    between atoms: _529  and  _531
REMARK  223  A    between atoms: _531  and  _532
REMARK  224  A    between atoms: _531  and  _534
REMARK  225  A    between atoms: _534  and  _535
REMARK  226  A    between atoms: _535  and  _536
REMARK  227  A    between atoms: _536  and  _537
REMARK  228  A    between atoms: _546  and  _548
REMARK  229  A    between atoms: _548  and  _549
REMARK  230  A    between atoms: _548  and  _551
REMARK  231  A    between atoms: _551  and  _552
REMARK                            x       y       z     vdW  Elec       q    Type
REMARK                         _______ _______ _______ _____ _____    ______ ____
ROOT
ATOM      1  O   HOH     1      25.398  34.199  11.588  0.00  0.00    +0.000 OA
ENDROOT
TORSDOF 0
REMARK  Name = ../refined-set-2016/2qd8/2qd8_pocket.pdb
REMARK  231 active torsions:
REMARK  status: ('A' for Active; 'I' for Inactive)
REMARK    1  A    between atoms: _1  and  _3
REMARK    2  A    between atoms: _3  and  _4
REMARK    3  A    between atoms: _3  and  _6
REMARK    4  A    between atoms: _6  and  _7
REMARK    5  A    between atoms: _7  and  _8
REMARK    6  A    between atoms: _8  and  _9
REMARK    7  A    between atoms: _11  and  _15
REMARK    8  A    between atoms: _18  and  _20
REMARK    9  A    between atoms: _20  and  _21
REMARK   10  A    between atoms: _20  and  _23
REMARK   11  A    between atoms: _23  and  _24
REMARK   12  A    between atoms: _27  and  _29
REMARK   13  A    between atoms: _29  and  _30
REMARK   14  A    between atoms: _29  and  _32
REMARK   15  A    between atoms: _32  and  _33
REMARK   16  A    between atoms: _36  and  _38
REMARK   17  A    between atoms: _38  and  _39
REMARK   18  A    between atoms: _38  and  _41
REMARK   19  A    between atoms: _41  and  _42
REMARK   20  A    between atoms: _45  and  _47
REMARK   21  A    between atoms: _47  and  _48
REMARK   22  A    between atoms: _47  and  _50
REMARK   23  A    between atoms: _50  and  _51
REMARK   24  A    between atoms: _54  and  _56
REMARK   25  A    between atoms: _56  and  _57
REMARK   26  A    between atoms: _59  and  _61
REMARK   27  A    between atoms: _61  and  _62
REMARK   28  A    between atoms: _65  and  _67
REMARK   29  A    between atoms: _67  and  _68
REMARK   30  A    between atoms: _67  and  _70
REMARK   31  A    between atoms: _70  and  _71
REMARK   32  A    between atoms: _74  and  _76
REMARK   33  A    between atoms: _76  and  _77
REMARK   34  A    between atoms: _76  and  _79
REMARK   35  A    between atoms: _79  and  _80
REMARK   36  A    between atoms: _83  and  _85
REMARK   37  A    between atoms: _85  and  _86
REMARK   38  A    between atoms: _85  and  _88
REMARK   39  A    between atoms: _88  and  _89
REMARK   40  A    between atoms: _92  and  _94
REMARK   41  A    between atoms: _94  and  _95
REMARK   42  A    between atoms: _94  and  _97
REMARK   43  A    between atoms: _100  and  _102
REMARK   44  A    between atoms: _102  and  _103
REMARK   45  A    between atoms: _102  and  _105
REMARK   46  A    between atoms: _105  and  _106
REMARK   47  A    between atoms: _106  and  _107
REMARK   48  A    between atoms: _107  and  _108
REMARK   49  A    between atoms: _108  and  _109
REMARK   50  A    between atoms: _113  and  _115
REMARK   51  A    between atoms: _115  and  _116
REMARK   52  A    between atoms: _115  and  _118
REMARK   53  A    between atoms: _118  and  _119
REMARK   54  A    between atoms: _119  and  _120
REMARK   55  A    between atoms: _122  and  _124
REMARK   56  A    between atoms: _124  and  _125
REMARK   57  A    between atoms: _124  and  _127
REMARK   58  A    between atoms: _127  and  _128
REMARK   59  A    between atoms: _131  and  _133
REMARK   60  A    between atoms: _133  and  _134
REMARK   61  A    between atoms: _136  and  _138
REMARK   62  A    between atoms: _138  and  _139
REMARK   63  A    between atoms: _141  and  _143
REMARK   64  A    between atoms: _143  and  _144
REMARK   65  A    between atoms: _143  and  _146
REMARK   66  A    between atoms: _146  and  _147
REMARK   67  A    between atoms: _150  and  _152
REMARK   68  A    between atoms: _152  and  _153
REMARK   69  A    between atoms: _155  and  _157
REMARK   70  A    between atoms: _157  and  _158
REMARK   71  A    between atoms: _160  and  _162
REMARK   72  A    between atoms: _162  and  _163
REMARK   73  A    between atoms: _162  and  _165
REMARK   74  A    between atoms: _165  and  _166
REMARK   75  A    between atoms: _172  and  _174
REMARK   76  A    between atoms: _174  and  _175
REMARK   77  A    between atoms: _174  and  _177
REMARK   78  A    between atoms: _177  and  _178
REMARK   79  A    between atoms: _181  and  _183
REMARK   80  A    between atoms: _183  and  _184
REMARK   81  A    between atoms: _183  and  _186
REMARK   82  A    between atoms: _189  and  _191
REMARK   83  A    between atoms: _191  and  _192
REMARK   84  A    between atoms: _191  and  _194
REMARK   85  A    between atoms: _194  and  _195
REMARK   86  A    between atoms: _198  and  _200
REMARK   87  A    between atoms: _200  and  _201
REMARK   88  A    between atoms: _200  and  _203
REMARK   89  A    between atoms: _203  and  _204
REMARK   90  A    between atoms: _208  and  _209
REMARK   91  A    between atoms: _214  and  _216
REMARK   92  A    between atoms: _216  and  _217
REMARK   93  A    between atoms: _216  and  _219
REMARK   94  A    between atoms: _222  and  _224
REMARK   95  A    between atoms: _224  and  _225
REMARK   96  A    between atoms: _224  and  _227
REMARK   97  A    between atoms: _227  and  _228
REMARK   98  A    between atoms: _233  and  _235
REMARK   99  A    between atoms: _235  and  _236
REMARK  100  A    between atoms: _235  and  _238
REMARK  101  A    between atoms: _241  and  _243
REMARK  102  A    between atoms: _243  and  _244
REMARK  103  A    between atoms: _243  and  _246
REMARK  104  A    between atoms: _246  and  _247
REMARK  105  A    between atoms: _250  and  _252
REMARK  106  A    between atoms: _252  and  _253
REMARK  107  A    between atoms: _255  and  _257
REMARK  108  A    between atoms: _257  and  _258
REMARK  109  A    between atoms: _257  and  _260
REMARK  110  A    between atoms: _260  and  _261
REMARK  111  A    between atoms: _261  and  _262
REMARK  112  A    between atoms: _262  and  _263
REMARK  113  A    between atoms: _272  and  _274
REMARK  114  A    between atoms: _274  and  _275
REMARK  115  A    between atoms: _274  and  _277
REMARK  116  A    between atoms: _277  and  _278
REMARK  117  A    between atoms: _283  and  _285
REMARK  118  A    between atoms: _285  and  _286
REMARK  119  A    between atoms: _285  and  _288
REMARK  120  A    between atoms: _288  and  _289
REMARK  121  A    between atoms: _289  and  _290
REMARK  122  A    between atoms: _290  and  _291
REMARK  123  A    between atoms: _300  and  _302
REMARK  124  A    between atoms: _302  and  _303
REMARK  125  A    between atoms: _302  and  _305
REMARK  126  A    between atoms: _305  and  _306
REMARK  127  A    between atoms: _309  and  _311
REMARK  128  A    between atoms: _311  and  _312
REMARK  129  A    between atoms: _311  and  _314
REMARK  130  A    between atoms: _314  and  _315
REMARK  131  A    between atoms: _318  and  _320
REMARK  132  A    between atoms: _320  and  _321
REMARK  133  A    between atoms: _320  and  _323
REMARK  134  A    between atoms: _323  and  _324
REMARK  135  A    between atoms: _327  and  _329
REMARK  136  A    between atoms: _329  and  _330
REMARK  137  A    between atoms: _329  and  _332
REMARK  138  A    between atoms: _332  and  _333
REMARK  139  A    between atoms: _336  and  _338
REMARK  140  A    between atoms: _338  and  _339
REMARK  141  A    between atoms: _341  and  _343
REMARK  142  A    between atoms: _343  and  _344
REMARK  143  A    between atoms: _347  and  _349
REMARK  144  A    between atoms: _349  and  _350
REMARK  145  A    between atoms: _349  and  _352
REMARK  146  A    between atoms: _352  and  _353
REMARK  147  A    between atoms: _356  and  _358
REMARK  148  A    between atoms: _358  and  _359
REMARK  149  A    between atoms: _358  and  _361
REMARK  150  A    between atoms: _361  and  _362
REMARK  151  A    between atoms: _365  and  _367
REMARK  152  A    between atoms: _367  and  _368
REMARK  153  A    between atoms: _367  and  _370
REMARK  154  A    between atoms: _370  and  _371
REMARK  155  A    between atoms: _374  and  _376
REMARK  156  A    between atoms: _376  and  _377
REMARK  157  A    between atoms: _376  and  _379
REMARK  158  A    between atoms: _382  and  _384
REMARK  159  A    between atoms: _384  and  _385
REMARK  160  A    between atoms: _384  and  _387
REMARK  161  A    between atoms: _387  and  _388
REMARK  162  A    between atoms: _388  and  _389
REMARK  163  A    between atoms: _389  and  _390
REMARK  164  A    between atoms: _390  and  _391
REMARK  165  A    between atoms: _395  and  _397
REMARK  166  A    between atoms: _397  and  _398
REMARK  167  A    between atoms: _397  and  _400
REMARK  168  A    between atoms: _400  and  _401
REMARK  169  A    between atoms: _401  and  _402
REMARK  170  A    between atoms: _404  and  _406
REMARK  171  A    between atoms: _406  and  _407
REMARK  172  A    between atoms: _406  and  _409
REMARK  173  A    between atoms: _409  and  _410
REMARK  174  A    between atoms: _413  and  _415
REMARK  175  A    between atoms: _415  and  _416
REMARK  176  A    between atoms: _418  and  _420
REMARK  177  A    between atoms: _420  and  _421
REMARK  178  A    between atoms: _423  and  _425
REMARK  179  A    between atoms: _425  and  _426
REMARK  180  A    between atoms: _425  and  _428
REMARK  181  A    between atoms: _426  and  _427
REMARK  182  A    between atoms: _426  and  _432
REMARK  183  A    between atoms: _427  and  _592
REMARK  184  A    between atoms: _428  and  _429
REMARK  185  A    between atoms: _432  and  _434
REMARK  186  A    between atoms: _434  and  _435
REMARK  187  A    between atoms: _437  and  _439
REMARK  188  A    between atoms: _439  and  _440
REMARK  189  A    between atoms: _442  and  _444
REMARK  190  A    between atoms: _444  and  _445
REMARK  191  A    between atoms: _444  and  _447
REMARK  192  A    between atoms: _447  and  _448
REMARK  193  A    between atoms: _454  and  _456
REMARK  194  A    between atoms: _456  and  _457
REMARK  195  A    between atoms: _456  and  _459
REMARK  196  A    between atoms: _459  and  _460
REMARK  197  A    between atoms: _463  and  _465
REMARK  198  A    between atoms: _465  and  _466
REMARK  199  A    between atoms: _465  and  _468
REMARK  200  A    between atoms: _468  and  _469
REMARK  201  A    between atoms: _472  and  _474
REMARK  202  A    between atoms: _474  and  _475
REMARK  203  A    between atoms: _474  and  _477
REMARK  204  A    between atoms: _477  and  _478
REMARK  205  A    between atoms: _482  and  _483
REMARK  206  A    between atoms: _488  and  _490
REMARK  207  A    between atoms: _490  and  _491
REMARK  208  A    between atoms: _490  and  _493
REMARK  209  A    between atoms: _496  and  _498
REMARK  210  A    between atoms: _498  and  _499
REMARK  211  A    between atoms: _498  and  _501
REMARK  212  A    between atoms: _501  and  _502
REMARK  213  A    between atoms: _507  and  _509
REMARK  214  A    between atoms: _509  and  _510
REMARK  215  A    between atoms: _509  and  _512
REMARK  216  A    between atoms: _515  and  _517
REMARK  217  A    between atoms: _517  and  _518
REMARK  218  A    between atoms: _517  and  _520
REMARK  219  A    between atoms: _520  and  _521
REMARK  220  A    between atoms: _524  and  _526
REMARK  221  A    between atoms: _526  and  _527
REMARK  222  A    between atoms: _529  and  _531
REMARK  223  A    between atoms: _531  and  _532
REMARK  224  A    between atoms: _531  and  _534
REMARK  225  A    between atoms: _534  and  _535
REMARK  226  A    between atoms: _535  and  _536
REMARK  227  A    between atoms: _536  and  _537
REMARK  228  A    between atoms: _546  and  _548
REMARK  229  A    between atoms: _548  and  _549
REMARK  230  A    between atoms: _548  and  _551
REMARK  231  A    between atoms: _551  and  _552
REMARK                            x       y       z     vdW  Elec       q    Type
REMARK                         _______ _______ _______ _____ _____    ______ ____
ROOT
ATOM      1  O   HOH     1       6.960  22.406  11.601  0.00  0.00    +0.000 OA
ENDROOT
TORSDOF 0
REMARK  Name = ../refined-set-2016/2qd8/2qd8_pocket.pdb
REMARK  231 active torsions:
REMARK  status: ('A' for Active; 'I' for Inactive)
REMARK    1  A    between atoms: _1  and  _3
REMARK    2  A    between atoms: _3  and  _4
REMARK    3  A    between atoms: _3  and  _6
REMARK    4  A    between atoms: _6  and  _7
REMARK    5  A    between atoms: _7  and  _8
REMARK    6  A    between atoms: _8  and  _9
REMARK    7  A    between atoms: _11  and  _15
REMARK    8  A    between atoms: _18  and  _20
REMARK    9  A    between atoms: _20  and  _21
REMARK   10  A    between atoms: _20  and  _23
REMARK   11  A    between atoms: _23  and  _24
REMARK   12  A    between atoms: _27  and  _29
REMARK   13  A    between atoms: _29  and  _30
REMARK   14  A    between atoms: _29  and  _32
REMARK   15  A    between atoms: _32  and  _33
REMARK   16  A    between atoms: _36  and  _38
REMARK   17  A    between atoms: _38  and  _39
REMARK   18  A    between atoms: _38  and  _41
REMARK   19  A    between atoms: _41  and  _42
REMARK   20  A    between atoms: _45  and  _47
REMARK   21  A    between atoms: _47  and  _48
REMARK   22  A    between atoms: _47  and  _50
REMARK   23  A    between atoms: _50  and  _51
REMARK   24  A    between atoms: _54  and  _56
REMARK   25  A    between atoms: _56  and  _57
REMARK   26  A    between atoms: _59  and  _61
REMARK   27  A    between atoms: _61  and  _62
REMARK   28  A    between atoms: _65  and  _67
REMARK   29  A    between atoms: _67  and  _68
REMARK   30  A    between atoms: _67  and  _70
REMARK   31  A    between atoms: _70  and  _71
REMARK   32  A    between atoms: _74  and  _76
REMARK   33  A    between atoms: _76  and  _77
REMARK   34  A    between atoms: _76  and  _79
REMARK   35  A    between atoms: _79  and  _80
REMARK   36  A    between atoms: _83  and  _85
REMARK   37  A    between atoms: _85  and  _86
REMARK   38  A    between atoms: _85  and  _88
REMARK   39  A    between atoms: _88  and  _89
REMARK   40  A    between atoms: _92  and  _94
REMARK   41  A    between atoms: _94  and  _95
REMARK   42  A    between atoms: _94  and  _97
REMARK   43  A    between atoms: _100  and  _102
REMARK   44  A    between atoms: _102  and  _103
REMARK   45  A    between atoms: _102  and  _105
REMARK   46  A    between atoms: _105  and  _106
REMARK   47  A    between atoms: _106  and  _107
REMARK   48  A    between atoms: _107  and  _108
REMARK   49  A    between atoms: _108  and  _109
REMARK   50  A    between atoms: _113  and  _115
REMARK   51  A    between atoms: _115  and  _116
REMARK   52  A    between atoms: _115  and  _118
REMARK   53  A    between atoms: _118  and  _119
REMARK   54  A    between atoms: _119  and  _120
REMARK   55  A    between atoms: _122  and  _124
REMARK   56  A    between atoms: _124  and  _125
REMARK   57  A    between atoms: _124  and  _127
REMARK   58  A    between atoms: _127  and  _128
REMARK   59  A    between atoms: _131  and  _133
REMARK   60  A    between atoms: _133  and  _134
REMARK   61  A    between atoms: _136  and  _138
REMARK   62  A    between atoms: _138  and  _139
REMARK   63  A    between atoms: _141  and  _143
REMARK   64  A    between atoms: _143  and  _144
REMARK   65  A    between atoms: _143  and  _146
REMARK   66  A    between atoms: _146  and  _147
REMARK   67  A    between atoms: _150  and  _152
REMARK   68  A    between atoms: _152  and  _153
REMARK   69  A    between atoms: _155  and  _157
REMARK   70  A    between atoms: _157  and  _158
REMARK   71  A    between atoms: _160  and  _162
REMARK   72  A    between atoms: _162  and  _163
REMARK   73  A    between atoms: _162  and  _165
REMARK   74  A    between atoms: _165  and  _166
REMARK   75  A    between atoms: _172  and  _174
REMARK   76  A    between atoms: _174  and  _175
REMARK   77  A    between atoms: _174  and  _177
REMARK   78  A    between atoms: _177  and  _178
REMARK   79  A    between atoms: _181  and  _183
REMARK   80  A    between atoms: _183  and  _184
REMARK   81  A    between atoms: _183  and  _186
REMARK   82  A    between atoms: _189  and  _191
REMARK   83  A    between atoms: _191  and  _192
REMARK   84  A    between atoms: _191  and  _194
REMARK   85  A    between atoms: _194  and  _195
REMARK   86  A    between atoms: _198  and  _200
REMARK   87  A    between atoms: _200  and  _201
REMARK   88  A    between atoms: _200  and  _203
REMARK   89  A    between atoms: _203  and  _204
REMARK   90  A    between atoms: _208  and  _209
REMARK   91  A    between atoms: _214  and  _216
REMARK   92  A    between atoms: _216  and  _217
REMARK   93  A    between atoms: _216  and  _219
REMARK   94  A    between atoms: _222  and  _224
REMARK   95  A    between atoms: _224  and  _225
REMARK   96  A    between atoms: _224  and  _227
REMARK   97  A    between atoms: _227  and  _228
REMARK   98  A    between atoms: _233  and  _235
REMARK   99  A    between atoms: _235  and  _236
REMARK  100  A    between atoms: _235  and  _238
REMARK  101  A    between atoms: _241  and  _243
REMARK  102  A    between atoms: _243  and  _244
REMARK  103  A    between atoms: _243  and  _246
REMARK  104  A    between atoms: _246  and  _247
REMARK  105  A    between atoms: _250  and  _252
REMARK  106  A    between atoms: _252  and  _253
REMARK  107  A    between atoms: _255  and  _257
REMARK  108  A    between atoms: _257  and  _258
REMARK  109  A    between atoms: _257  and  _260
REMARK  110  A    between atoms: _260  and  _261
REMARK  111  A    between atoms: _261  and  _262
REMARK  112  A    between atoms: _262  and  _263
REMARK  113  A    between atoms: _272  and  _274
REMARK  114  A    between atoms: _274  and  _275
REMARK  115  A    between atoms: _274  and  _277
REMARK  116  A    between atoms: _277  and  _278
REMARK  117  A    between atoms: _283  and  _285
REMARK  118  A    between atoms: _285  and  _286
REMARK  119  A    between atoms: _285  and  _288
REMARK  120  A    between atoms: _288  and  _289
REMARK  121  A    between atoms: _289  and  _290
REMARK  122  A    between atoms: _290  and  _291
REMARK  123  A    between atoms: _300  and  _302
REMARK  124  A    between atoms: _302  and  _303
REMARK  125  A    between atoms: _302  and  _305
REMARK  126  A    between atoms: _305  and  _306
REMARK  127  A    between atoms: _309  and  _311
REMARK  128  A    between atoms: _311  and  _312
REMARK  129  A    between atoms: _311  and  _314
REMARK  130  A    between atoms: _314  and  _315
REMARK  131  A    between atoms: _318  and  _320
REMARK  132  A    between atoms: _320  and  _321
REMARK  133  A    between atoms: _320  and  _323
REMARK  134  A    between atoms: _323  and  _324
REMARK  135  A    between atoms: _327  and  _329
REMARK  136  A    between atoms: _329  and  _330
REMARK  137  A    between atoms: _329  and  _332
REMARK  138  A    between atoms: _332  and  _333
REMARK  139  A    between atoms: _336  and  _338
REMARK  140  A    between atoms: _338  and  _339
REMARK  141  A    between atoms: _341  and  _343
REMARK  142  A    between atoms: _343  and  _344
REMARK  143  A    between atoms: _347  and  _349
REMARK  144  A    between atoms: _349  and  _350
REMARK  145  A    between atoms: _349  and  _352
REMARK  146  A    between atoms: _352  and  _353
REMARK  147  A    between atoms: _356  and  _358
REMARK  148  A    between atoms: _358  and  _359
REMARK  149  A    between atoms: _358  and  _361
REMARK  150  A    between atoms: _361  and  _362
REMARK  151  A    between atoms: _365  and  _367
REMARK  152  A    between atoms: _367  and  _368
REMARK  153  A    between atoms: _367  and  _370
REMARK  154  A    between atoms: _370  and  _371
REMARK  155  A    between atoms: _374  and  _376
REMARK  156  A    between atoms: _376  and  _377
REMARK  157  A    between atoms: _376  and  _379
REMARK  158  A    between atoms: _382  and  _384
REMARK  159  A    between atoms: _384  and  _385
REMARK  160  A    between atoms: _384  and  _387
REMARK  161  A    between atoms: _387  and  _388
REMARK  162  A    between atoms: _388  and  _389
REMARK  163  A    between atoms: _389  and  _390
REMARK  164  A    between atoms: _390  and  _391
REMARK  165  A    between atoms: _395  and  _397
REMARK  166  A    between atoms: _397  and  _398
REMARK  167  A    between atoms: _397  and  _400
REMARK  168  A    between atoms: _400  and  _401
REMARK  169  A    between atoms: _401  and  _402
REMARK  170  A    between atoms: _404  and  _406
REMARK  171  A    between atoms: _406  and  _407
REMARK  172  A    between atoms: _406  and  _409
REMARK  173  A    between atoms: _409  and  _410
REMARK  174  A    between atoms: _413  and  _415
REMARK  175  A    between atoms: _415  and  _416
REMARK  176  A    between atoms: _418  and  _420
REMARK  177  A    between atoms: _420  and  _421
REMARK  178  A    between atoms: _423  and  _425
REMARK  179  A    between atoms: _425  and  _426
REMARK  180  A    between atoms: _425  and  _428
REMARK  181  A    between atoms: _426  and  _427
REMARK  182  A    between atoms: _426  and  _432
REMARK  183  A    between atoms: _427  and  _592
REMARK  184  A    between atoms: _428  and  _429
REMARK  185  A    between atoms: _432  and  _434
REMARK  186  A    between atoms: _434  and  _435
REMARK  187  A    between atoms: _437  and  _439
REMARK  188  A    between atoms: _439  and  _440
REMARK  189  A    between atoms: _442  and  _444
REMARK  190  A    between atoms: _444  and  _445
REMARK  191  A    between atoms: _444  and  _447
REMARK  192  A    between atoms: _447  and  _448
REMARK  193  A    between atoms: _454  and  _456
REMARK  194  A    between atoms: _456  and  _457
REMARK  195  A    between atoms: _456  and  _459
REMARK  196  A    between atoms: _459  and  _460
REMARK  197  A    between atoms: _463  and  _465
REMARK  198  A    between atoms: _465  and  _466
REMARK  199  A    between atoms: _465  and  _468
REMARK  200  A    between atoms: _468  and  _469
REMARK  201  A    between atoms: _472  and  _474
REMARK  202  A    between atoms: _474  and  _475
REMARK  203  A    between atoms: _474  and  _477
REMARK  204  A    between atoms: _477  and  _478
REMARK  205  A    between atoms: _482  and  _483
REMARK  206  A    between atoms: _488  and  _490
REMARK  207  A    between atoms: _490  and  _491
REMARK  208  A    between atoms: _490  and  _493
REMARK  209  A    between atoms: _496  and  _498
REMARK  210  A    between atoms: _498  and  _499
REMARK  211  A    between atoms: _498  and  _501
REMARK  212  A    between atoms: _501  and  _502
REMARK  213  A    between atoms: _507  and  _509
REMARK  214  A    between atoms: _509  and  _510
REMARK  215  A    between atoms: _509  and  _512
REMARK  216  A    between atoms: _515  and  _517
REMARK  217  A    between atoms: _517  and  _518
REMARK  218  A    between atoms: _517  and  _520
REMARK  219  A    between atoms: _520  and  _521
REMARK  220  A    between atoms: _524  and  _526
REMARK  221  A    between atoms: _526  and  _527
REMARK  222  A    between atoms: _529  and  _531
REMARK  223  A    between atoms: _531  and  _532
REMARK  224  A    between atoms: _531  and  _534
REMARK  225  A    between atoms: _534  and  _535
REMARK  226  A    between atoms: _535  and  _536
REMARK  227  A    between atoms: _536  and  _537
REMARK  228  A    between atoms: _546  and  _548
REMARK  229  A    between atoms: _548  and  _549
REMARK  230  A    between atoms: _548  and  _551
REMARK  231  A    between atoms: _551  and  _552
REMARK                            x       y       z     vdW  Elec       q    Type
REMARK                         _______ _______ _______ _____ _____    ______ ____
ROOT
ATOM      1  O   HOH     1       7.347  23.086   8.626  0.00  0.00    +0.000 OA
ENDROOT
TORSDOF 0
REMARK  Name = ../refined-set-2016/2qd8/2qd8_pocket.pdb
REMARK  231 active torsions:
REMARK  status: ('A' for Active; 'I' for Inactive)
REMARK    1  A    between atoms: _1  and  _3
REMARK    2  A    between atoms: _3  and  _4
REMARK    3  A    between atoms: _3  and  _6
REMARK    4  A    between atoms: _6  and  _7
REMARK    5  A    between atoms: _7  and  _8
REMARK    6  A    between atoms: _8  and  _9
REMARK    7  A    between atoms: _11  and  _15
REMARK    8  A    between atoms: _18  and  _20
REMARK    9  A    between atoms: _20  and  _21
REMARK   10  A    between atoms: _20  and  _23
REMARK   11  A    between atoms: _23  and  _24
REMARK   12  A    between atoms: _27  and  _29
REMARK   13  A    between atoms: _29  and  _30
REMARK   14  A    between atoms: _29  and  _32
REMARK   15  A    between atoms: _32  and  _33
REMARK   16  A    between atoms: _36  and  _38
REMARK   17  A    between atoms: _38  and  _39
REMARK   18  A    between atoms: _38  and  _41
REMARK   19  A    between atoms: _41  and  _42
REMARK   20  A    between atoms: _45  and  _47
REMARK   21  A    between atoms: _47  and  _48
REMARK   22  A    between atoms: _47  and  _50
REMARK   23  A    between atoms: _50  and  _51
REMARK   24  A    between atoms: _54  and  _56
REMARK   25  A    between atoms: _56  and  _57
REMARK   26  A    between atoms: _59  and  _61
REMARK   27  A    between atoms: _61  and  _62
REMARK   28  A    between atoms: _65  and  _67
REMARK   29  A    between atoms: _67  and  _68
REMARK   30  A    between atoms: _67  and  _70
REMARK   31  A    between atoms: _70  and  _71
REMARK   32  A    between atoms: _74  and  _76
REMARK   33  A    between atoms: _76  and  _77
REMARK   34  A    between atoms: _76  and  _79
REMARK   35  A    between atoms: _79  and  _80
REMARK   36  A    between atoms: _83  and  _85
REMARK   37  A    between atoms: _85  and  _86
REMARK   38  A    between atoms: _85  and  _88
REMARK   39  A    between atoms: _88  and  _89
REMARK   40  A    between atoms: _92  and  _94
REMARK   41  A    between atoms: _94  and  _95
REMARK   42  A    between atoms: _94  and  _97
REMARK   43  A    between atoms: _100  and  _102
REMARK   44  A    between atoms: _102  and  _103
REMARK   45  A    between atoms: _102  and  _105
REMARK   46  A    between atoms: _105  and  _106
REMARK   47  A    between atoms: _106  and  _107
REMARK   48  A    between atoms: _107  and  _108
REMARK   49  A    between atoms: _108  and  _109
REMARK   50  A    between atoms: _113  and  _115
REMARK   51  A    between atoms: _115  and  _116
REMARK   52  A    between atoms: _115  and  _118
REMARK   53  A    between atoms: _118  and  _119
REMARK   54  A    between atoms: _119  and  _120
REMARK   55  A    between atoms: _122  and  _124
REMARK   56  A    between atoms: _124  and  _125
REMARK   57  A    between atoms: _124  and  _127
REMARK   58  A    between atoms: _127  and  _128
REMARK   59  A    between atoms: _131  and  _133
REMARK   60  A    between atoms: _133  and  _134
REMARK   61  A    between atoms: _136  and  _138
REMARK   62  A    between atoms: _138  and  _139
REMARK   63  A    between atoms: _141  and  _143
REMARK   64  A    between atoms: _143  and  _144
REMARK   65  A    between atoms: _143  and  _146
REMARK   66  A    between atoms: _146  and  _147
REMARK   67  A    between atoms: _150  and  _152
REMARK   68  A    between atoms: _152  and  _153
REMARK   69  A    between atoms: _155  and  _157
REMARK   70  A    between atoms: _157  and  _158
REMARK   71  A    between atoms: _160  and  _162
REMARK   72  A    between atoms: _162  and  _163
REMARK   73  A    between atoms: _162  and  _165
REMARK   74  A    between atoms: _165  and  _166
REMARK   75  A    between atoms: _172  and  _174
REMARK   76  A    between atoms: _174  and  _175
REMARK   77  A    between atoms: _174  and  _177
REMARK   78  A    between atoms: _177  and  _178
REMARK   79  A    between atoms: _181  and  _183
REMARK   80  A    between atoms: _183  and  _184
REMARK   81  A    between atoms: _183  and  _186
REMARK   82  A    between atoms: _189  and  _191
REMARK   83  A    between atoms: _191  and  _192
REMARK   84  A    between atoms: _191  and  _194
REMARK   85  A    between atoms: _194  and  _195
REMARK   86  A    between atoms: _198  and  _200
REMARK   87  A    between atoms: _200  and  _201
REMARK   88  A    between atoms: _200  and  _203
REMARK   89  A    between atoms: _203  and  _204
REMARK   90  A    between atoms: _208  and  _209
REMARK   91  A    between atoms: _214  and  _216
REMARK   92  A    between atoms: _216  and  _217
REMARK   93  A    between atoms: _216  and  _219
REMARK   94  A    between atoms: _222  and  _224
REMARK   95  A    between atoms: _224  and  _225
REMARK   96  A    between atoms: _224  and  _227
REMARK   97  A    between atoms: _227  and  _228
REMARK   98  A    between atoms: _233  and  _235
REMARK   99  A    between atoms: _235  and  _236
REMARK  100  A    between atoms: _235  and  _238
REMARK  101  A    between atoms: _241  and  _243
REMARK  102  A    between atoms: _243  and  _244
REMARK  103  A    between atoms: _243  and  _246
REMARK  104  A    between atoms: _246  and  _247
REMARK  105  A    between atoms: _250  and  _252
REMARK  106  A    between atoms: _252  and  _253
REMARK  107  A    between atoms: _255  and  _257
REMARK  108  A    between atoms: _257  and  _258
REMARK  109  A    between atoms: _257  and  _260
REMARK  110  A    between atoms: _260  and  _261
REMARK  111  A    between atoms: _261  and  _262
REMARK  112  A    between atoms: _262  and  _263
REMARK  113  A    between atoms: _272  and  _274
REMARK  114  A    between atoms: _274  and  _275
REMARK  115  A    between atoms: _274  and  _277
REMARK  116  A    between atoms: _277  and  _278
REMARK  117  A    between atoms: _283  and  _285
REMARK  118  A    between atoms: _285  and  _286
REMARK  119  A    between atoms: _285  and  _288
REMARK  120  A    between atoms: _288  and  _289
REMARK  121  A    between atoms: _289  and  _290
REMARK  122  A    between atoms: _290  and  _291
REMARK  123  A    between atoms: _300  and  _302
REMARK  124  A    between atoms: _302  and  _303
REMARK  125  A    between atoms: _302  and  _305
REMARK  126  A    between atoms: _305  and  _306
REMARK  127  A    between atoms: _309  and  _311
REMARK  128  A    between atoms: _311  and  _312
REMARK  129  A    between atoms: _311  and  _314
REMARK  130  A    between atoms: _314  and  _315
REMARK  131  A    between atoms: _318  and  _320
REMARK  132  A    between atoms: _320  and  _321
REMARK  133  A    between atoms: _320  and  _323
REMARK  134  A    between atoms: _323  and  _324
REMARK  135  A    between atoms: _327  and  _329
REMARK  136  A    between atoms: _329  and  _330
REMARK  137  A    between atoms: _329  and  _332
REMARK  138  A    between atoms: _332  and  _333
REMARK  139  A    between atoms: _336  and  _338
REMARK  140  A    between atoms: _338  and  _339
REMARK  141  A    between atoms: _341  and  _343
REMARK  142  A    between atoms: _343  and  _344
REMARK  143  A    between atoms: _347  and  _349
REMARK  144  A    between atoms: _349  and  _350
REMARK  145  A    between atoms: _349  and  _352
REMARK  146  A    between atoms: _352  and  _353
REMARK  147  A    between atoms: _356  and  _358
REMARK  148  A    between atoms: _358  and  _359
REMARK  149  A    between atoms: _358  and  _361
REMARK  150  A    between atoms: _361  and  _362
REMARK  151  A    between atoms: _365  and  _367
REMARK  152  A    between atoms: _367  and  _368
REMARK  153  A    between atoms: _367  and  _370
REMARK  154  A    between atoms: _370  and  _371
REMARK  155  A    between atoms: _374  and  _376
REMARK  156  A    between atoms: _376  and  _377
REMARK  157  A    between atoms: _376  and  _379
REMARK  158  A    between atoms: _382  and  _384
REMARK  159  A    between atoms: _384  and  _385
REMARK  160  A    between atoms: _384  and  _387
REMARK  161  A    between atoms: _387  and  _388
REMARK  162  A    between atoms: _388  and  _389
REMARK  163  A    between atoms: _389  and  _390
REMARK  164  A    between atoms: _390  and  _391
REMARK  165  A    between atoms: _395  and  _397
REMARK  166  A    between atoms: _397  and  _398
REMARK  167  A    between atoms: _397  and  _400
REMARK  168  A    between atoms: _400  and  _401
REMARK  169  A    between atoms: _401  and  _402
REMARK  170  A    between atoms: _404  and  _406
REMARK  171  A    between atoms: _406  and  _407
REMARK  172  A    between atoms: _406  and  _409
REMARK  173  A    between atoms: _409  and  _410
REMARK  174  A    between atoms: _413  and  _415
REMARK  175  A    between atoms: _415  and  _416
REMARK  176  A    between atoms: _418  and  _420
REMARK  177  A    between atoms: _420  and  _421
REMARK  178  A    between atoms: _423  and  _425
REMARK  179  A    between atoms: _425  and  _426
REMARK  180  A    between atoms: _425  and  _428
REMARK  181  A    between atoms: _426  and  _427
REMARK  182  A    between atoms: _426  and  _432
REMARK  183  A    between atoms: _427  and  _592
REMARK  184  A    between atoms: _428  and  _429
REMARK  185  A    between atoms: _432  and  _434
REMARK  186  A    between atoms: _434  and  _435
REMARK  187  A    between atoms: _437  and  _439
REMARK  188  A    between atoms: _439  and  _440
REMARK  189  A    between atoms: _442  and  _444
REMARK  190  A    between atoms: _444  and  _445
REMARK  191  A    between atoms: _444  and  _447
REMARK  192  A    between atoms: _447  and  _448
REMARK  193  A    between atoms: _454  and  _456
REMARK  194  A    between atoms: _456  and  _457
REMARK  195  A    between atoms: _456  and  _459
REMARK  196  A    between atoms: _459  and  _460
REMARK  197  A    between atoms: _463  and  _465
REMARK  198  A    between atoms: _465  and  _466
REMARK  199  A    between atoms: _465  and  _468
REMARK  200  A    between atoms: _468  and  _469
REMARK  201  A    between atoms: _472  and  _474
REMARK  202  A    between atoms: _474  and  _475
REMARK  203  A    between atoms: _474  and  _477
REMARK  204  A    between atoms: _477  and  _478
REMARK  205  A    between atoms: _482  and  _483
REMARK  206  A    between atoms: _488  and  _490
REMARK  207  A    between atoms: _490  and  _491
REMARK  208  A    between atoms: _490  and  _493
REMARK  209  A    between atoms: _496  and  _498
REMARK  210  A    between atoms: _498  and  _499
REMARK  211  A    between atoms: _498  and  _501
REMARK  212  A    between atoms: _501  and  _502
REMARK  213  A    between atoms: _507  and  _509
REMARK  214  A    between atoms: _509  and  _510
REMARK  215  A    between atoms: _509  and  _512
REMARK  216  A    between atoms: _515  and  _517
REMARK  217  A    between atoms: _517  and  _518
REMARK  218  A    between atoms: _517  and  _520
REMARK  219  A    between atoms: _520  and  _521
REMARK  220  A    between atoms: _524  and  _526
REMARK  221  A    between atoms: _526  and  _527
REMARK  222  A    between atoms: _529  and  _531
REMARK  223  A    between atoms: _531  and  _532
REMARK  224  A    between atoms: _531  and  _534
REMARK  225  A    between atoms: _534  and  _535
REMARK  226  A    between atoms: _535  and  _536
REMARK  227  A    between atoms: _536  and  _537
REMARK  228  A    between atoms: _546  and  _548
REMARK  229  A    between atoms: _548  and  _549
REMARK  230  A    between atoms: _548  and  _551
REMARK  231  A    between atoms: _551  and  _552
REMARK                            x       y       z     vdW  Elec       q    Type
REMARK                         _______ _______ _______ _____ _____    ______ ____
ROOT
ATOM      1  O   HOH     1      25.230  30.259  17.315  0.00  0.00    +0.000 OA
ENDROOT
TORSDOF 0
REMARK  Name = ../refined-set-2016/2qd8/2qd8_pocket.pdb
REMARK  231 active torsions:
REMARK  status: ('A' for Active; 'I' for Inactive)
REMARK    1  A    between atoms: _1  and  _3
REMARK    2  A    between atoms: _3  and  _4
REMARK    3  A    between atoms: _3  and  _6
REMARK    4  A    between atoms: _6  and  _7
REMARK    5  A    between atoms: _7  and  _8
REMARK    6  A    between atoms: _8  and  _9
REMARK    7  A    between atoms: _11  and  _15
REMARK    8  A    between atoms: _18  and  _20
REMARK    9  A    between atoms: _20  and  _21
REMARK   10  A    between atoms: _20  and  _23
REMARK   11  A    between atoms: _23  and  _24
REMARK   12  A    between atoms: _27  and  _29
REMARK   13  A    between atoms: _29  and  _30
REMARK   14  A    between atoms: _29  and  _32
REMARK   15  A    between atoms: _32  and  _33
REMARK   16  A    between atoms: _36  and  _38
REMARK   17  A    between atoms: _38  and  _39
REMARK   18  A    between atoms: _38  and  _41
REMARK   19  A    between atoms: _41  and  _42
REMARK   20  A    between atoms: _45  and  _47
REMARK   21  A    between atoms: _47  and  _48
REMARK   22  A    between atoms: _47  and  _50
REMARK   23  A    between atoms: _50  and  _51
REMARK   24  A    between atoms: _54  and  _56
REMARK   25  A    between atoms: _56  and  _57
REMARK   26  A    between atoms: _59  and  _61
REMARK   27  A    between atoms: _61  and  _62
REMARK   28  A    between atoms: _65  and  _67
REMARK   29  A    between atoms: _67  and  _68
REMARK   30  A    between atoms: _67  and  _70
REMARK   31  A    between atoms: _70  and  _71
REMARK   32  A    between atoms: _74  and  _76
REMARK   33  A    between atoms: _76  and  _77
REMARK   34  A    between atoms: _76  and  _79
REMARK   35  A    between atoms: _79  and  _80
REMARK   36  A    between atoms: _83  and  _85
REMARK   37  A    between atoms: _85  and  _86
REMARK   38  A    between atoms: _85  and  _88
REMARK   39  A    between atoms: _88  and  _89
REMARK   40  A    between atoms: _92  and  _94
REMARK   41  A    between atoms: _94  and  _95
REMARK   42  A    between atoms: _94  and  _97
REMARK   43  A    between atoms: _100  and  _102
REMARK   44  A    between atoms: _102  and  _103
REMARK   45  A    between atoms: _102  and  _105
REMARK   46  A    between atoms: _105  and  _106
REMARK   47  A    between atoms: _106  and  _107
REMARK   48  A    between atoms: _107  and  _108
REMARK   49  A    between atoms: _108  and  _109
REMARK   50  A    between atoms: _113  and  _115
REMARK   51  A    between atoms: _115  and  _116
REMARK   52  A    between atoms: _115  and  _118
REMARK   53  A    between atoms: _118  and  _119
REMARK   54  A    between atoms: _119  and  _120
REMARK   55  A    between atoms: _122  and  _124
REMARK   56  A    between atoms: _124  and  _125
REMARK   57  A    between atoms: _124  and  _127
REMARK   58  A    between atoms: _127  and  _128
REMARK   59  A    between atoms: _131  and  _133
REMARK   60  A    between atoms: _133  and  _134
REMARK   61  A    between atoms: _136  and  _138
REMARK   62  A    between atoms: _138  and  _139
REMARK   63  A    between atoms: _141  and  _143
REMARK   64  A    between atoms: _143  and  _144
REMARK   65  A    between atoms: _143  and  _146
REMARK   66  A    between atoms: _146  and  _147
REMARK   67  A    between atoms: _150  and  _152
REMARK   68  A    between atoms: _152  and  _153
REMARK   69  A    between atoms: _155  and  _157
REMARK   70  A    between atoms: _157  and  _158
REMARK   71  A    between atoms: _160  and  _162
REMARK   72  A    between atoms: _162  and  _163
REMARK   73  A    between atoms: _162  and  _165
REMARK   74  A    between atoms: _165  and  _166
REMARK   75  A    between atoms: _172  and  _174
REMARK   76  A    between atoms: _174  and  _175
REMARK   77  A    between atoms: _174  and  _177
REMARK   78  A    between atoms: _177  and  _178
REMARK   79  A    between atoms: _181  and  _183
REMARK   80  A    between atoms: _183  and  _184
REMARK   81  A    between atoms: _183  and  _186
REMARK   82  A    between atoms: _189  and  _191
REMARK   83  A    between atoms: _191  and  _192
REMARK   84  A    between atoms: _191  and  _194
REMARK   85  A    between atoms: _194  and  _195
REMARK   86  A    between atoms: _198  and  _200
REMARK   87  A    between atoms: _200  and  _201
REMARK   88  A    between atoms: _200  and  _203
REMARK   89  A    between atoms: _203  and  _204
REMARK   90  A    between atoms: _208  and  _209
REMARK   91  A    between atoms: _214  and  _216
REMARK   92  A    between atoms: _216  and  _217
REMARK   93  A    between atoms: _216  and  _219
REMARK   94  A    between atoms: _222  and  _224
REMARK   95  A    between atoms: _224  and  _225
REMARK   96  A    between atoms: _224  and  _227
REMARK   97  A    between atoms: _227  and  _228
REMARK   98  A    between atoms: _233  and  _235
REMARK   99  A    between atoms: _235  and  _236
REMARK  100  A    between atoms: _235  and  _238
REMARK  101  A    between atoms: _241  and  _243
REMARK  102  A    between atoms: _243  and  _244
REMARK  103  A    between atoms: _243  and  _246
REMARK  104  A    between atoms: _246  and  _247
REMARK  105  A    between atoms: _250  and  _252
REMARK  106  A    between atoms: _252  and  _253
REMARK  107  A    between atoms: _255  and  _257
REMARK  108  A    between atoms: _257  and  _258
REMARK  109  A    between atoms: _257  and  _260
REMARK  110  A    between atoms: _260  and  _261
REMARK  111  A    between atoms: _261  and  _262
REMARK  112  A    between atoms: _262  and  _263
REMARK  113  A    between atoms: _272  and  _274
REMARK  114  A    between atoms: _274  and  _275
REMARK  115  A    between atoms: _274  and  _277
REMARK  116  A    between atoms: _277  and  _278
REMARK  117  A    between atoms: _283  and  _285
REMARK  118  A    between atoms: _285  and  _286
REMARK  119  A    between atoms: _285  and  _288
REMARK  120  A    between atoms: _288  and  _289
REMARK  121  A    between atoms: _289  and  _290
REMARK  122  A    between atoms: _290  and  _291
REMARK  123  A    between atoms: _300  and  _302
REMARK  124  A    between atoms: _302  and  _303
REMARK  125  A    between atoms: _302  and  _305
REMARK  126  A    between atoms: _305  and  _306
REMARK  127  A    between atoms: _309  and  _311
REMARK  128  A    between atoms: _311  and  _312
REMARK  129  A    between atoms: _311  and  _314
REMARK  130  A    between atoms: _314  and  _315
REMARK  131  A    between atoms: _318  and  _320
REMARK  132  A    between atoms: _320  and  _321
REMARK  133  A    between atoms: _320  and  _323
REMARK  134  A    between atoms: _323  and  _324
REMARK  135  A    between atoms: _327  and  _329
REMARK  136  A    between atoms: _329  and  _330
REMARK  137  A    between atoms: _329  and  _332
REMARK  138  A    between atoms: _332  and  _333
REMARK  139  A    between atoms: _336  and  _338
REMARK  140  A    between atoms: _338  and  _339
REMARK  141  A    between atoms: _341  and  _343
REMARK  142  A    between atoms: _343  and  _344
REMARK  143  A    between atoms: _347  and  _349
REMARK  144  A    between atoms: _349  and  _350
REMARK  145  A    between atoms: _349  and  _352
REMARK  146  A    between atoms: _352  and  _353
REMARK  147  A    between atoms: _356  and  _358
REMARK  148  A    between atoms: _358  and  _359
REMARK  149  A    between atoms: _358  and  _361
REMARK  150  A    between atoms: _361  and  _362
REMARK  151  A    between atoms: _365  and  _367
REMARK  152  A    between atoms: _367  and  _368
REMARK  153  A    between atoms: _367  and  _370
REMARK  154  A    between atoms: _370  and  _371
REMARK  155  A    between atoms: _374  and  _376
REMARK  156  A    between atoms: _376  and  _377
REMARK  157  A    between atoms: _376  and  _379
REMARK  158  A    between atoms: _382  and  _384
REMARK  159  A    between atoms: _384  and  _385
REMARK  160  A    between atoms: _384  and  _387
REMARK  161  A    between atoms: _387  and  _388
REMARK  162  A    between atoms: _388  and  _389
REMARK  163  A    between atoms: _389  and  _390
REMARK  164  A    between atoms: _390  and  _391
REMARK  165  A    between atoms: _395  and  _397
REMARK  166  A    between atoms: _397  and  _398
REMARK  167  A    between atoms: _397  and  _400
REMARK  168  A    between atoms: _400  and  _401
REMARK  169  A    between atoms: _401  and  _402
REMARK  170  A    between atoms: _404  and  _406
REMARK  171  A    between atoms: _406  and  _407
REMARK  172  A    between atoms: _406  and  _409
REMARK  173  A    between atoms: _409  and  _410
REMARK  174  A    between atoms: _413  and  _415
REMARK  175  A    between atoms: _415  and  _416
REMARK  176  A    between atoms: _418  and  _420
REMARK  177  A    between atoms: _420  and  _421
REMARK  178  A    between atoms: _423  and  _425
REMARK  179  A    between atoms: _425  and  _426
REMARK  180  A    between atoms: _425  and  _428
REMARK  181  A    between atoms: _426  and  _427
REMARK  182  A    between atoms: _426  and  _432
REMARK  183  A    between atoms: _427  and  _592
REMARK  184  A    between atoms: _428  and  _429
REMARK  185  A    between atoms: _432  and  _434
REMARK  186  A    between atoms: _434  and  _435
REMARK  187  A    between atoms: _437  and  _439
REMARK  188  A    between atoms: _439  and  _440
REMARK  189  A    between atoms: _442  and  _444
REMARK  190  A    between atoms: _444  and  _445
REMARK  191  A    between atoms: _444  and  _447
REMARK  192  A    between atoms: _447  and  _448
REMARK  193  A    between atoms: _454  and  _456
REMARK  194  A    between atoms: _456  and  _457
REMARK  195  A    between atoms: _456  and  _459
REMARK  196  A    between atoms: _459  and  _460
REMARK  197  A    between atoms: _463  and  _465
REMARK  198  A    between atoms: _465  and  _466
REMARK  199  A    between atoms: _465  and  _468
REMARK  200  A    between atoms: _468  and  _469
REMARK  201  A    between atoms: _472  and  _474
REMARK  202  A    between atoms: _474  and  _475
REMARK  203  A    between atoms: _474  and  _477
REMARK  204  A    between atoms: _477  and  _478
REMARK  205  A    between atoms: _482  and  _483
REMARK  206  A    between atoms: _488  and  _490
REMARK  207  A    between atoms: _490  and  _491
REMARK  208  A    between atoms: _490  and  _493
REMARK  209  A    between atoms: _496  and  _498
REMARK  210  A    between atoms: _498  and  _499
REMARK  211  A    between atoms: _498  and  _501
REMARK  212  A    between atoms: _501  and  _502
REMARK  213  A    between atoms: _507  and  _509
REMARK  214  A    between atoms: _509  and  _510
REMARK  215  A    between atoms: _509  and  _512
REMARK  216  A    between atoms: _515  and  _517
REMARK  217  A    between atoms: _517  and  _518
REMARK  218  A    between atoms: _517  and  _520
REMARK  219  A    between atoms: _520  and  _521
REMARK  220  A    between atoms: _524  and  _526
REMARK  221  A    between atoms: _526  and  _527
REMARK  222  A    between atoms: _529  and  _531
REMARK  223  A    between atoms: _531  and  _532
REMARK  224  A    between atoms: _531  and  _534
REMARK  225  A    between atoms: _534  and  _535
REMARK  226  A    between atoms: _535  and  _536
REMARK  227  A    between atoms: _536  and  _537
REMARK  228  A    between atoms: _546  and  _548
REMARK  229  A    between atoms: _548  and  _549
REMARK  230  A    between atoms: _548  and  _551
REMARK  231  A    between atoms: _551  and  _552
REMARK                            x       y       z     vdW  Elec       q    Type
REMARK                         _______ _______ _______ _____ _____    ______ ____
ROOT
ATOM      1  O   HOH     1      22.554  34.925  12.693  0.00  0.00    +0.000 OA
ENDROOT
TORSDOF 0
REMARK  Name = ../refined-set-2016/2qd8/2qd8_pocket.pdb
REMARK  231 active torsions:
REMARK  status: ('A' for Active; 'I' for Inactive)
REMARK    1  A    between atoms: _1  and  _3
REMARK    2  A    between atoms: _3  and  _4
REMARK    3  A    between atoms: _3  and  _6
REMARK    4  A    between atoms: _6  and  _7
REMARK    5  A    between atoms: _7  and  _8
REMARK    6  A    between atoms: _8  and  _9
REMARK    7  A    between atoms: _11  and  _15
REMARK    8  A    between atoms: _18  and  _20
REMARK    9  A    between atoms: _20  and  _21
REMARK   10  A    between atoms: _20  and  _23
REMARK   11  A    between atoms: _23  and  _24
REMARK   12  A    between atoms: _27  and  _29
REMARK   13  A    between atoms: _29  and  _30
REMARK   14  A    between atoms: _29  and  _32
REMARK   15  A    between atoms: _32  and  _33
REMARK   16  A    between atoms: _36  and  _38
REMARK   17  A    between atoms: _38  and  _39
REMARK   18  A    between atoms: _38  and  _41
REMARK   19  A    between atoms: _41  and  _42
REMARK   20  A    between atoms: _45  and  _47
REMARK   21  A    between atoms: _47  and  _48
REMARK   22  A    between atoms: _47  and  _50
REMARK   23  A    between atoms: _50  and  _51
REMARK   24  A    between atoms: _54  and  _56
REMARK   25  A    between atoms: _56  and  _57
REMARK   26  A    between atoms: _59  and  _61
REMARK   27  A    between atoms: _61  and  _62
REMARK   28  A    between atoms: _65  and  _67
REMARK   29  A    between atoms: _67  and  _68
REMARK   30  A    between atoms: _67  and  _70
REMARK   31  A    between atoms: _70  and  _71
REMARK   32  A    between atoms: _74  and  _76
REMARK   33  A    between atoms: _76  and  _77
REMARK   34  A    between atoms: _76  and  _79
REMARK   35  A    between atoms: _79  and  _80
REMARK   36  A    between atoms: _83  and  _85
REMARK   37  A    between atoms: _85  and  _86
REMARK   38  A    between atoms: _85  and  _88
REMARK   39  A    between atoms: _88  and  _89
REMARK   40  A    between atoms: _92  and  _94
REMARK   41  A    between atoms: _94  and  _95
REMARK   42  A    between atoms: _94  and  _97
REMARK   43  A    between atoms: _100  and  _102
REMARK   44  A    between atoms: _102  and  _103
REMARK   45  A    between atoms: _102  and  _105
REMARK   46  A    between atoms: _105  and  _106
REMARK   47  A    between atoms: _106  and  _107
REMARK   48  A    between atoms: _107  and  _108
REMARK   49  A    between atoms: _108  and  _109
REMARK   50  A    between atoms: _113  and  _115
REMARK   51  A    between atoms: _115  and  _116
REMARK   52  A    between atoms: _115  and  _118
REMARK   53  A    between atoms: _118  and  _119
REMARK   54  A    between atoms: _119  and  _120
REMARK   55  A    between atoms: _122  and  _124
REMARK   56  A    between atoms: _124  and  _125
REMARK   57  A    between atoms: _124  and  _127
REMARK   58  A    between atoms: _127  and  _128
REMARK   59  A    between atoms: _131  and  _133
REMARK   60  A    between atoms: _133  and  _134
REMARK   61  A    between atoms: _136  and  _138
REMARK   62  A    between atoms: _138  and  _139
REMARK   63  A    between atoms: _141  and  _143
REMARK   64  A    between atoms: _143  and  _144
REMARK   65  A    between atoms: _143  and  _146
REMARK   66  A    between atoms: _146  and  _147
REMARK   67  A    between atoms: _150  and  _152
REMARK   68  A    between atoms: _152  and  _153
REMARK   69  A    between atoms: _155  and  _157
REMARK   70  A    between atoms: _157  and  _158
REMARK   71  A    between atoms: _160  and  _162
REMARK   72  A    between atoms: _162  and  _163
REMARK   73  A    between atoms: _162  and  _165
REMARK   74  A    between atoms: _165  and  _166
REMARK   75  A    between atoms: _172  and  _174
REMARK   76  A    between atoms: _174  and  _175
REMARK   77  A    between atoms: _174  and  _177
REMARK   78  A    between atoms: _177  and  _178
REMARK   79  A    between atoms: _181  and  _183
REMARK   80  A    between atoms: _183  and  _184
REMARK   81  A    between atoms: _183  and  _186
REMARK   82  A    between atoms: _189  and  _191
REMARK   83  A    between atoms: _191  and  _192
REMARK   84  A    between atoms: _191  and  _194
REMARK   85  A    between atoms: _194  and  _195
REMARK   86  A    between atoms: _198  and  _200
REMARK   87  A    between atoms: _200  and  _201
REMARK   88  A    between atoms: _200  and  _203
REMARK   89  A    between atoms: _203  and  _204
REMARK   90  A    between atoms: _208  and  _209
REMARK   91  A    between atoms: _214  and  _216
REMARK   92  A    between atoms: _216  and  _217
REMARK   93  A    between atoms: _216  and  _219
REMARK   94  A    between atoms: _222  and  _224
REMARK   95  A    between atoms: _224  and  _225
REMARK   96  A    between atoms: _224  and  _227
REMARK   97  A    between atoms: _227  and  _228
REMARK   98  A    between atoms: _233  and  _235
REMARK   99  A    between atoms: _235  and  _236
REMARK  100  A    between atoms: _235  and  _238
REMARK  101  A    between atoms: _241  and  _243
REMARK  102  A    between atoms: _243  and  _244
REMARK  103  A    between atoms: _243  and  _246
REMARK  104  A    between atoms: _246  and  _247
REMARK  105  A    between atoms: _250  and  _252
REMARK  106  A    between atoms: _252  and  _253
REMARK  107  A    between atoms: _255  and  _257
REMARK  108  A    between atoms: _257  and  _258
REMARK  109  A    between atoms: _257  and  _260
REMARK  110  A    between atoms: _260  and  _261
REMARK  111  A    between atoms: _261  and  _262
REMARK  112  A    between atoms: _262  and  _263
REMARK  113  A    between atoms: _272  and  _274
REMARK  114  A    between atoms: _274  and  _275
REMARK  115  A    between atoms: _274  and  _277
REMARK  116  A    between atoms: _277  and  _278
REMARK  117  A    between atoms: _283  and  _285
REMARK  118  A    between atoms: _285  and  _286
REMARK  119  A    between atoms: _285  and  _288
REMARK  120  A    between atoms: _288  and  _289
REMARK  121  A    between atoms: _289  and  _290
REMARK  122  A    between atoms: _290  and  _291
REMARK  123  A    between atoms: _300  and  _302
REMARK  124  A    between atoms: _302  and  _303
REMARK  125  A    between atoms: _302  and  _305
REMARK  126  A    between atoms: _305  and  _306
REMARK  127  A    between atoms: _309  and  _311
REMARK  128  A    between atoms: _311  and  _312
REMARK  129  A    between atoms: _311  and  _314
REMARK  130  A    between atoms: _314  and  _315
REMARK  131  A    between atoms: _318  and  _320
REMARK  132  A    between atoms: _320  and  _321
REMARK  133  A    between atoms: _320  and  _323
REMARK  134  A    between atoms: _323  and  _324
REMARK  135  A    between atoms: _327  and  _329
REMARK  136  A    between atoms: _329  and  _330
REMARK  137  A    between atoms: _329  and  _332
REMARK  138  A    between atoms: _332  and  _333
REMARK  139  A    between atoms: _336  and  _338
REMARK  140  A    between atoms: _338  and  _339
REMARK  141  A    between atoms: _341  and  _343
REMARK  142  A    between atoms: _343  and  _344
REMARK  143  A    between atoms: _347  and  _349
REMARK  144  A    between atoms: _349  and  _350
REMARK  145  A    between atoms: _349  and  _352
REMARK  146  A    between atoms: _352  and  _353
REMARK  147  A    between atoms: _356  and  _358
REMARK  148  A    between atoms: _358  and  _359
REMARK  149  A    between atoms: _358  and  _361
REMARK  150  A    between atoms: _361  and  _362
REMARK  151  A    between atoms: _365  and  _367
REMARK  152  A    between atoms: _367  and  _368
REMARK  153  A    between atoms: _367  and  _370
REMARK  154  A    between atoms: _370  and  _371
REMARK  155  A    between atoms: _374  and  _376
REMARK  156  A    between atoms: _376  and  _377
REMARK  157  A    between atoms: _376  and  _379
REMARK  158  A    between atoms: _382  and  _384
REMARK  159  A    between atoms: _384  and  _385
REMARK  160  A    between atoms: _384  and  _387
REMARK  161  A    between atoms: _387  and  _388
REMARK  162  A    between atoms: _388  and  _389
REMARK  163  A    between atoms: _389  and  _390
REMARK  164  A    between atoms: _390  and  _391
REMARK  165  A    between atoms: _395  and  _397
REMARK  166  A    between atoms: _397  and  _398
REMARK  167  A    between atoms: _397  and  _400
REMARK  168  A    between atoms: _400  and  _401
REMARK  169  A    between atoms: _401  and  _402
REMARK  170  A    between atoms: _404  and  _406
REMARK  171  A    between atoms: _406  and  _407
REMARK  172  A    between atoms: _406  and  _409
REMARK  173  A    between atoms: _409  and  _410
REMARK  174  A    between atoms: _413  and  _415
REMARK  175  A    between atoms: _415  and  _416
REMARK  176  A    between atoms: _418  and  _420
REMARK  177  A    between atoms: _420  and  _421
REMARK  178  A    between atoms: _423  and  _425
REMARK  179  A    between atoms: _425  and  _426
REMARK  180  A    between atoms: _425  and  _428
REMARK  181  A    between atoms: _426  and  _427
REMARK  182  A    between atoms: _426  and  _432
REMARK  183  A    between atoms: _427  and  _592
REMARK  184  A    between atoms: _428  and  _429
REMARK  185  A    between atoms: _432  and  _434
REMARK  186  A    between atoms: _434  and  _435
REMARK  187  A    between atoms: _437  and  _439
REMARK  188  A    between atoms: _439  and  _440
REMARK  189  A    between atoms: _442  and  _444
REMARK  190  A    between atoms: _444  and  _445
REMARK  191  A    between atoms: _444  and  _447
REMARK  192  A    between atoms: _447  and  _448
REMARK  193  A    between atoms: _454  and  _456
REMARK  194  A    between atoms: _456  and  _457
REMARK  195  A    between atoms: _456  and  _459
REMARK  196  A    between atoms: _459  and  _460
REMARK  197  A    between atoms: _463  and  _465
REMARK  198  A    between atoms: _465  and  _466
REMARK  199  A    between atoms: _465  and  _468
REMARK  200  A    between atoms: _468  and  _469
REMARK  201  A    between atoms: _472  and  _474
REMARK  202  A    between atoms: _474  and  _475
REMARK  203  A    between atoms: _474  and  _477
REMARK  204  A    between atoms: _477  and  _478
REMARK  205  A    between atoms: _482  and  _483
REMARK  206  A    between atoms: _488  and  _490
REMARK  207  A    between atoms: _490  and  _491
REMARK  208  A    between atoms: _490  and  _493
REMARK  209  A    between atoms: _496  and  _498
REMARK  210  A    between atoms: _498  and  _499
REMARK  211  A    between atoms: _498  and  _501
REMARK  212  A    between atoms: _501  and  _502
REMARK  213  A    between atoms: _507  and  _509
REMARK  214  A    between atoms: _509  and  _510
REMARK  215  A    between atoms: _509  and  _512
REMARK  216  A    between atoms: _515  and  _517
REMARK  217  A    between atoms: _517  and  _518
REMARK  218  A    between atoms: _517  and  _520
REMARK  219  A    between atoms: _520  and  _521
REMARK  220  A    between atoms: _524  and  _526
REMARK  221  A    between atoms: _526  and  _527
REMARK  222  A    between atoms: _529  and  _531
REMARK  223  A    between atoms: _531  and  _532
REMARK  224  A    between atoms: _531  and  _534
REMARK  225  A    between atoms: _534  and  _535
REMARK  226  A    between atoms: _535  and  _536
REMARK  227  A    between atoms: _536  and  _537
REMARK  228  A    between atoms: _546  and  _548
REMARK  229  A    between atoms: _548  and  _549
REMARK  230  A    between atoms: _548  and  _551
REMARK  231  A    between atoms: _551  and  _552
REMARK                            x       y       z     vdW  Elec       q    Type
REMARK                         _______ _______ _______ _____ _____    ______ ____
ROOT
ATOM      1  O   HOH     1      24.760  33.379  15.926  0.00  0.00    +0.000 OA
ENDROOT
TORSDOF 0
REMARK  Name = ../refined-set-2016/2qd8/2qd8_pocket.pdb
REMARK  231 active torsions:
REMARK  status: ('A' for Active; 'I' for Inactive)
REMARK    1  A    between atoms: _1  and  _3
REMARK    2  A    between atoms: _3  and  _4
REMARK    3  A    between atoms: _3  and  _6
REMARK    4  A    between atoms: _6  and  _7
REMARK    5  A    between atoms: _7  and  _8
REMARK    6  A    between atoms: _8  and  _9
REMARK    7  A    between atoms: _11  and  _15
REMARK    8  A    between atoms: _18  and  _20
REMARK    9  A    between atoms: _20  and  _21
REMARK   10  A    between atoms: _20  and  _23
REMARK   11  A    between atoms: _23  and  _24
REMARK   12  A    between atoms: _27  and  _29
REMARK   13  A    between atoms: _29  and  _30
REMARK   14  A    between atoms: _29  and  _32
REMARK   15  A    between atoms: _32  and  _33
REMARK   16  A    between atoms: _36  and  _38
REMARK   17  A    between atoms: _38  and  _39
REMARK   18  A    between atoms: _38  and  _41
REMARK   19  A    between atoms: _41  and  _42
REMARK   20  A    between atoms: _45  and  _47
REMARK   21  A    between atoms: _47  and  _48
REMARK   22  A    between atoms: _47  and  _50
REMARK   23  A    between atoms: _50  and  _51
REMARK   24  A    between atoms: _54  and  _56
REMARK   25  A    between atoms: _56  and  _57
REMARK   26  A    between atoms: _59  and  _61
REMARK   27  A    between atoms: _61  and  _62
REMARK   28  A    between atoms: _65  and  _67
REMARK   29  A    between atoms: _67  and  _68
REMARK   30  A    between atoms: _67  and  _70
REMARK   31  A    between atoms: _70  and  _71
REMARK   32  A    between atoms: _74  and  _76
REMARK   33  A    between atoms: _76  and  _77
REMARK   34  A    between atoms: _76  and  _79
REMARK   35  A    between atoms: _79  and  _80
REMARK   36  A    between atoms: _83  and  _85
REMARK   37  A    between atoms: _85  and  _86
REMARK   38  A    between atoms: _85  and  _88
REMARK   39  A    between atoms: _88  and  _89
REMARK   40  A    between atoms: _92  and  _94
REMARK   41  A    between atoms: _94  and  _95
REMARK   42  A    between atoms: _94  and  _97
REMARK   43  A    between atoms: _100  and  _102
REMARK   44  A    between atoms: _102  and  _103
REMARK   45  A    between atoms: _102  and  _105
REMARK   46  A    between atoms: _105  and  _106
REMARK   47  A    between atoms: _106  and  _107
REMARK   48  A    between atoms: _107  and  _108
REMARK   49  A    between atoms: _108  and  _109
REMARK   50  A    between atoms: _113  and  _115
REMARK   51  A    between atoms: _115  and  _116
REMARK   52  A    between atoms: _115  and  _118
REMARK   53  A    between atoms: _118  and  _119
REMARK   54  A    between atoms: _119  and  _120
REMARK   55  A    between atoms: _122  and  _124
REMARK   56  A    between atoms: _124  and  _125
REMARK   57  A    between atoms: _124  and  _127
REMARK   58  A    between atoms: _127  and  _128
REMARK   59  A    between atoms: _131  and  _133
REMARK   60  A    between atoms: _133  and  _134
REMARK   61  A    between atoms: _136  and  _138
REMARK   62  A    between atoms: _138  and  _139
REMARK   63  A    between atoms: _141  and  _143
REMARK   64  A    between atoms: _143  and  _144
REMARK   65  A    between atoms: _143  and  _146
REMARK   66  A    between atoms: _146  and  _147
REMARK   67  A    between atoms: _150  and  _152
REMARK   68  A    between atoms: _152  and  _153
REMARK   69  A    between atoms: _155  and  _157
REMARK   70  A    between atoms: _157  and  _158
REMARK   71  A    between atoms: _160  and  _162
REMARK   72  A    between atoms: _162  and  _163
REMARK   73  A    between atoms: _162  and  _165
REMARK   74  A    between atoms: _165  and  _166
REMARK   75  A    between atoms: _172  and  _174
REMARK   76  A    between atoms: _174  and  _175
REMARK   77  A    between atoms: _174  and  _177
REMARK   78  A    between atoms: _177  and  _178
REMARK   79  A    between atoms: _181  and  _183
REMARK   80  A    between atoms: _183  and  _184
REMARK   81  A    between atoms: _183  and  _186
REMARK   82  A    between atoms: _189  and  _191
REMARK   83  A    between atoms: _191  and  _192
REMARK   84  A    between atoms: _191  and  _194
REMARK   85  A    between atoms: _194  and  _195
REMARK   86  A    between atoms: _198  and  _200
REMARK   87  A    between atoms: _200  and  _201
REMARK   88  A    between atoms: _200  and  _203
REMARK   89  A    between atoms: _203  and  _204
REMARK   90  A    between atoms: _208  and  _209
REMARK   91  A    between atoms: _214  and  _216
REMARK   92  A    between atoms: _216  and  _217
REMARK   93  A    between atoms: _216  and  _219
REMARK   94  A    between atoms: _222  and  _224
REMARK   95  A    between atoms: _224  and  _225
REMARK   96  A    between atoms: _224  and  _227
REMARK   97  A    between atoms: _227  and  _228
REMARK   98  A    between atoms: _233  and  _235
REMARK   99  A    between atoms: _235  and  _236
REMARK  100  A    between atoms: _235  and  _238
REMARK  101  A    between atoms: _241  and  _243
REMARK  102  A    between atoms: _243  and  _244
REMARK  103  A    between atoms: _243  and  _246
REMARK  104  A    between atoms: _246  and  _247
REMARK  105  A    between atoms: _250  and  _252
REMARK  106  A    between atoms: _252  and  _253
REMARK  107  A    between atoms: _255  and  _257
REMARK  108  A    between atoms: _257  and  _258
REMARK  109  A    between atoms: _257  and  _260
REMARK  110  A    between atoms: _260  and  _261
REMARK  111  A    between atoms: _261  and  _262
REMARK  112  A    between atoms: _262  and  _263
REMARK  113  A    between atoms: _272  and  _274
REMARK  114  A    between atoms: _274  and  _275
REMARK  115  A    between atoms: _274  and  _277
REMARK  116  A    between atoms: _277  and  _278
REMARK  117  A    between atoms: _283  and  _285
REMARK  118  A    between atoms: _285  and  _286
REMARK  119  A    between atoms: _285  and  _288
REMARK  120  A    between atoms: _288  and  _289
REMARK  121  A    between atoms: _289  and  _290
REMARK  122  A    between atoms: _290  and  _291
REMARK  123  A    between atoms: _300  and  _302
REMARK  124  A    between atoms: _302  and  _303
REMARK  125  A    between atoms: _302  and  _305
REMARK  126  A    between atoms: _305  and  _306
REMARK  127  A    between atoms: _309  and  _311
REMARK  128  A    between atoms: _311  and  _312
REMARK  129  A    between atoms: _311  and  _314
REMARK  130  A    between atoms: _314  and  _315
REMARK  131  A    between atoms: _318  and  _320
REMARK  132  A    between atoms: _320  and  _321
REMARK  133  A    between atoms: _320  and  _323
REMARK  134  A    between atoms: _323  and  _324
REMARK  135  A    between atoms: _327  and  _329
REMARK  136  A    between atoms: _329  and  _330
REMARK  137  A    between atoms: _329  and  _332
REMARK  138  A    between atoms: _332  and  _333
REMARK  139  A    between atoms: _336  and  _338
REMARK  140  A    between atoms: _338  and  _339
REMARK  141  A    between atoms: _341  and  _343
REMARK  142  A    between atoms: _343  and  _344
REMARK  143  A    between atoms: _347  and  _349
REMARK  144  A    between atoms: _349  and  _350
REMARK  145  A    between atoms: _349  and  _352
REMARK  146  A    between atoms: _352  and  _353
REMARK  147  A    between atoms: _356  and  _358
REMARK  148  A    between atoms: _358  and  _359
REMARK  149  A    between atoms: _358  and  _361
REMARK  150  A    between atoms: _361  and  _362
REMARK  151  A    between atoms: _365  and  _367
REMARK  152  A    between atoms: _367  and  _368
REMARK  153  A    between atoms: _367  and  _370
REMARK  154  A    between atoms: _370  and  _371
REMARK  155  A    between atoms: _374  and  _376
REMARK  156  A    between atoms: _376  and  _377
REMARK  157  A    between atoms: _376  and  _379
REMARK  158  A    between atoms: _382  and  _384
REMARK  159  A    between atoms: _384  and  _385
REMARK  160  A    between atoms: _384  and  _387
REMARK  161  A    between atoms: _387  and  _388
REMARK  162  A    between atoms: _388  and  _389
REMARK  163  A    between atoms: _389  and  _390
REMARK  164  A    between atoms: _390  and  _391
REMARK  165  A    between atoms: _395  and  _397
REMARK  166  A    between atoms: _397  and  _398
REMARK  167  A    between atoms: _397  and  _400
REMARK  168  A    between atoms: _400  and  _401
REMARK  169  A    between atoms: _401  and  _402
REMARK  170  A    between atoms: _404  and  _406
REMARK  171  A    between atoms: _406  and  _407
REMARK  172  A    between atoms: _406  and  _409
REMARK  173  A    between atoms: _409  and  _410
REMARK  174  A    between atoms: _413  and  _415
REMARK  175  A    between atoms: _415  and  _416
REMARK  176  A    between atoms: _418  and  _420
REMARK  177  A    between atoms: _420  and  _421
REMARK  178  A    between atoms: _423  and  _425
REMARK  179  A    between atoms: _425  and  _426
REMARK  180  A    between atoms: _425  and  _428
REMARK  181  A    between atoms: _426  and  _427
REMARK  182  A    between atoms: _426  and  _432
REMARK  183  A    between atoms: _427  and  _592
REMARK  184  A    between atoms: _428  and  _429
REMARK  185  A    between atoms: _432  and  _434
REMARK  186  A    between atoms: _434  and  _435
REMARK  187  A    between atoms: _437  and  _439
REMARK  188  A    between atoms: _439  and  _440
REMARK  189  A    between atoms: _442  and  _444
REMARK  190  A    between atoms: _444  and  _445
REMARK  191  A    between atoms: _444  and  _447
REMARK  192  A    between atoms: _447  and  _448
REMARK  193  A    between atoms: _454  and  _456
REMARK  194  A    between atoms: _456  and  _457
REMARK  195  A    between atoms: _456  and  _459
REMARK  196  A    between atoms: _459  and  _460
REMARK  197  A    between atoms: _463  and  _465
REMARK  198  A    between atoms: _465  and  _466
REMARK  199  A    between atoms: _465  and  _468
REMARK  200  A    between atoms: _468  and  _469
REMARK  201  A    between atoms: _472  and  _474
REMARK  202  A    between atoms: _474  and  _475
REMARK  203  A    between atoms: _474  and  _477
REMARK  204  A    between atoms: _477  and  _478
REMARK  205  A    between atoms: _482  and  _483
REMARK  206  A    between atoms: _488  and  _490
REMARK  207  A    between atoms: _490  and  _491
REMARK  208  A    between atoms: _490  and  _493
REMARK  209  A    between atoms: _496  and  _498
REMARK  210  A    between atoms: _498  and  _499
REMARK  211  A    between atoms: _498  and  _501
REMARK  212  A    between atoms: _501  and  _502
REMARK  213  A    between atoms: _507  and  _509
REMARK  214  A    between atoms: _509  and  _510
REMARK  215  A    between atoms: _509  and  _512
REMARK  216  A    between atoms: _515  and  _517
REMARK  217  A    between atoms: _517  and  _518
REMARK  218  A    between atoms: _517  and  _520
REMARK  219  A    between atoms: _520  and  _521
REMARK  220  A    between atoms: _524  and  _526
REMARK  221  A    between atoms: _526  and  _527
REMARK  222  A    between atoms: _529  and  _531
REMARK  223  A    between atoms: _531  and  _532
REMARK  224  A    between atoms: _531  and  _534
REMARK  225  A    between atoms: _534  and  _535
REMARK  226  A    between atoms: _535  and  _536
REMARK  227  A    between atoms: _536  and  _537
REMARK  228  A    between atoms: _546  and  _548
REMARK  229  A    between atoms: _548  and  _549
REMARK  230  A    between atoms: _548  and  _551
REMARK  231  A    between atoms: _551  and  _552
REMARK                            x       y       z     vdW  Elec       q    Type
REMARK                         _______ _______ _______ _____ _____    ______ ____
ROOT
ATOM      1  O   HOH     1      25.771  31.080  15.018  0.00  0.00    +0.000 OA
ENDROOT
TORSDOF 0
REMARK  Name = ../refined-set-2016/2qd8/2qd8_pocket.pdb
REMARK  231 active torsions:
REMARK  status: ('A' for Active; 'I' for Inactive)
REMARK    1  A    between atoms: _1  and  _3
REMARK    2  A    between atoms: _3  and  _4
REMARK    3  A    between atoms: _3  and  _6
REMARK    4  A    between atoms: _6  and  _7
REMARK    5  A    between atoms: _7  and  _8
REMARK    6  A    between atoms: _8  and  _9
REMARK    7  A    between atoms: _11  and  _15
REMARK    8  A    between atoms: _18  and  _20
REMARK    9  A    between atoms: _20  and  _21
REMARK   10  A    between atoms: _20  and  _23
REMARK   11  A    between atoms: _23  and  _24
REMARK   12  A    between atoms: _27  and  _29
REMARK   13  A    between atoms: _29  and  _30
REMARK   14  A    between atoms: _29  and  _32
REMARK   15  A    between atoms: _32  and  _33
REMARK   16  A    between atoms: _36  and  _38
REMARK   17  A    between atoms: _38  and  _39
REMARK   18  A    between atoms: _38  and  _41
REMARK   19  A    between atoms: _41  and  _42
REMARK   20  A    between atoms: _45  and  _47
REMARK   21  A    between atoms: _47  and  _48
REMARK   22  A    between atoms: _47  and  _50
REMARK   23  A    between atoms: _50  and  _51
REMARK   24  A    between atoms: _54  and  _56
REMARK   25  A    between atoms: _56  and  _57
REMARK   26  A    between atoms: _59  and  _61
REMARK   27  A    between atoms: _61  and  _62
REMARK   28  A    between atoms: _65  and  _67
REMARK   29  A    between atoms: _67  and  _68
REMARK   30  A    between atoms: _67  and  _70
REMARK   31  A    between atoms: _70  and  _71
REMARK   32  A    between atoms: _74  and  _76
REMARK   33  A    between atoms: _76  and  _77
REMARK   34  A    between atoms: _76  and  _79
REMARK   35  A    between atoms: _79  and  _80
REMARK   36  A    between atoms: _83  and  _85
REMARK   37  A    between atoms: _85  and  _86
REMARK   38  A    between atoms: _85  and  _88
REMARK   39  A    between atoms: _88  and  _89
REMARK   40  A    between atoms: _92  and  _94
REMARK   41  A    between atoms: _94  and  _95
REMARK   42  A    between atoms: _94  and  _97
REMARK   43  A    between atoms: _100  and  _102
REMARK   44  A    between atoms: _102  and  _103
REMARK   45  A    between atoms: _102  and  _105
REMARK   46  A    between atoms: _105  and  _106
REMARK   47  A    between atoms: _106  and  _107
REMARK   48  A    between atoms: _107  and  _108
REMARK   49  A    between atoms: _108  and  _109
REMARK   50  A    between atoms: _113  and  _115
REMARK   51  A    between atoms: _115  and  _116
REMARK   52  A    between atoms: _115  and  _118
REMARK   53  A    between atoms: _118  and  _119
REMARK   54  A    between atoms: _119  and  _120
REMARK   55  A    between atoms: _122  and  _124
REMARK   56  A    between atoms: _124  and  _125
REMARK   57  A    between atoms: _124  and  _127
REMARK   58  A    between atoms: _127  and  _128
REMARK   59  A    between atoms: _131  and  _133
REMARK   60  A    between atoms: _133  and  _134
REMARK   61  A    between atoms: _136  and  _138
REMARK   62  A    between atoms: _138  and  _139
REMARK   63  A    between atoms: _141  and  _143
REMARK   64  A    between atoms: _143  and  _144
REMARK   65  A    between atoms: _143  and  _146
REMARK   66  A    between atoms: _146  and  _147
REMARK   67  A    between atoms: _150  and  _152
REMARK   68  A    between atoms: _152  and  _153
REMARK   69  A    between atoms: _155  and  _157
REMARK   70  A    between atoms: _157  and  _158
REMARK   71  A    between atoms: _160  and  _162
REMARK   72  A    between atoms: _162  and  _163
REMARK   73  A    between atoms: _162  and  _165
REMARK   74  A    between atoms: _165  and  _166
REMARK   75  A    between atoms: _172  and  _174
REMARK   76  A    between atoms: _174  and  _175
REMARK   77  A    between atoms: _174  and  _177
REMARK   78  A    between atoms: _177  and  _178
REMARK   79  A    between atoms: _181  and  _183
REMARK   80  A    between atoms: _183  and  _184
REMARK   81  A    between atoms: _183  and  _186
REMARK   82  A    between atoms: _189  and  _191
REMARK   83  A    between atoms: _191  and  _192
REMARK   84  A    between atoms: _191  and  _194
REMARK   85  A    between atoms: _194  and  _195
REMARK   86  A    between atoms: _198  and  _200
REMARK   87  A    between atoms: _200  and  _201
REMARK   88  A    between atoms: _200  and  _203
REMARK   89  A    between atoms: _203  and  _204
REMARK   90  A    between atoms: _208  and  _209
REMARK   91  A    between atoms: _214  and  _216
REMARK   92  A    between atoms: _216  and  _217
REMARK   93  A    between atoms: _216  and  _219
REMARK   94  A    between atoms: _222  and  _224
REMARK   95  A    between atoms: _224  and  _225
REMARK   96  A    between atoms: _224  and  _227
REMARK   97  A    between atoms: _227  and  _228
REMARK   98  A    between atoms: _233  and  _235
REMARK   99  A    between atoms: _235  and  _236
REMARK  100  A    between atoms: _235  and  _238
REMARK  101  A    between atoms: _241  and  _243
REMARK  102  A    between atoms: _243  and  _244
REMARK  103  A    between atoms: _243  and  _246
REMARK  104  A    between atoms: _246  and  _247
REMARK  105  A    between atoms: _250  and  _252
REMARK  106  A    between atoms: _252  and  _253
REMARK  107  A    between atoms: _255  and  _257
REMARK  108  A    between atoms: _257  and  _258
REMARK  109  A    between atoms: _257  and  _260
REMARK  110  A    between atoms: _260  and  _261
REMARK  111  A    between atoms: _261  and  _262
REMARK  112  A    between atoms: _262  and  _263
REMARK  113  A    between atoms: _272  and  _274
REMARK  114  A    between atoms: _274  and  _275
REMARK  115  A    between atoms: _274  and  _277
REMARK  116  A    between atoms: _277  and  _278
REMARK  117  A    between atoms: _283  and  _285
REMARK  118  A    between atoms: _285  and  _286
REMARK  119  A    between atoms: _285  and  _288
REMARK  120  A    between atoms: _288  and  _289
REMARK  121  A    between atoms: _289  and  _290
REMARK  122  A    between atoms: _290  and  _291
REMARK  123  A    between atoms: _300  and  _302
REMARK  124  A    between atoms: _302  and  _303
REMARK  125  A    between atoms: _302  and  _305
REMARK  126  A    between atoms: _305  and  _306
REMARK  127  A    between atoms: _309  and  _311
REMARK  128  A    between atoms: _311  and  _312
REMARK  129  A    between atoms: _311  and  _314
REMARK  130  A    between atoms: _314  and  _315
REMARK  131  A    between atoms: _318  and  _320
REMARK  132  A    between atoms: _320  and  _321
REMARK  133  A    between atoms: _320  and  _323
REMARK  134  A    between atoms: _323  and  _324
REMARK  135  A    between atoms: _327  and  _329
REMARK  136  A    between atoms: _329  and  _330
REMARK  137  A    between atoms: _329  and  _332
REMARK  138  A    between atoms: _332  and  _333
REMARK  139  A    between atoms: _336  and  _338
REMARK  140  A    between atoms: _338  and  _339
REMARK  141  A    between atoms: _341  and  _343
REMARK  142  A    between atoms: _343  and  _344
REMARK  143  A    between atoms: _347  and  _349
REMARK  144  A    between atoms: _349  and  _350
REMARK  145  A    between atoms: _349  and  _352
REMARK  146  A    between atoms: _352  and  _353
REMARK  147  A    between atoms: _356  and  _358
REMARK  148  A    between atoms: _358  and  _359
REMARK  149  A    between atoms: _358  and  _361
REMARK  150  A    between atoms: _361  and  _362
REMARK  151  A    between atoms: _365  and  _367
REMARK  152  A    between atoms: _367  and  _368
REMARK  153  A    between atoms: _367  and  _370
REMARK  154  A    between atoms: _370  and  _371
REMARK  155  A    between atoms: _374  and  _376
REMARK  156  A    between atoms: _376  and  _377
REMARK  157  A    between atoms: _376  and  _379
REMARK  158  A    between atoms: _382  and  _384
REMARK  159  A    between atoms: _384  and  _385
REMARK  160  A    between atoms: _384  and  _387
REMARK  161  A    between atoms: _387  and  _388
REMARK  162  A    between atoms: _388  and  _389
REMARK  163  A    between atoms: _389  and  _390
REMARK  164  A    between atoms: _390  and  _391
REMARK  165  A    between atoms: _395  and  _397
REMARK  166  A    between atoms: _397  and  _398
REMARK  167  A    between atoms: _397  and  _400
REMARK  168  A    between atoms: _400  and  _401
REMARK  169  A    between atoms: _401  and  _402
REMARK  170  A    between atoms: _404  and  _406
REMARK  171  A    between atoms: _406  and  _407
REMARK  172  A    between atoms: _406  and  _409
REMARK  173  A    between atoms: _409  and  _410
REMARK  174  A    between atoms: _413  and  _415
REMARK  175  A    between atoms: _415  and  _416
REMARK  176  A    between atoms: _418  and  _420
REMARK  177  A    between atoms: _420  and  _421
REMARK  178  A    between atoms: _423  and  _425
REMARK  179  A    between atoms: _425  and  _426
REMARK  180  A    between atoms: _425  and  _428
REMARK  181  A    between atoms: _426  and  _427
REMARK  182  A    between atoms: _426  and  _432
REMARK  183  A    between atoms: _427  and  _592
REMARK  184  A    between atoms: _428  and  _429
REMARK  185  A    between atoms: _432  and  _434
REMARK  186  A    between atoms: _434  and  _435
REMARK  187  A    between atoms: _437  and  _439
REMARK  188  A    between atoms: _439  and  _440
REMARK  189  A    between atoms: _442  and  _444
REMARK  190  A    between atoms: _444  and  _445
REMARK  191  A    between atoms: _444  and  _447
REMARK  192  A    between atoms: _447  and  _448
REMARK  193  A    between atoms: _454  and  _456
REMARK  194  A    between atoms: _456  and  _457
REMARK  195  A    between atoms: _456  and  _459
REMARK  196  A    between atoms: _459  and  _460
REMARK  197  A    between atoms: _463  and  _465
REMARK  198  A    between atoms: _465  and  _466
REMARK  199  A    between atoms: _465  and  _468
REMARK  200  A    between atoms: _468  and  _469
REMARK  201  A    between atoms: _472  and  _474
REMARK  202  A    between atoms: _474  and  _475
REMARK  203  A    between atoms: _474  and  _477
REMARK  204  A    between atoms: _477  and  _478
REMARK  205  A    between atoms: _482  and  _483
REMARK  206  A    between atoms: _488  and  _490
REMARK  207  A    between atoms: _490  and  _491
REMARK  208  A    between atoms: _490  and  _493
REMARK  209  A    between atoms: _496  and  _498
REMARK  210  A    between atoms: _498  and  _499
REMARK  211  A    between atoms: _498  and  _501
REMARK  212  A    between atoms: _501  and  _502
REMARK  213  A    between atoms: _507  and  _509
REMARK  214  A    between atoms: _509  and  _510
REMARK  215  A    between atoms: _509  and  _512
REMARK  216  A    between atoms: _515  and  _517
REMARK  217  A    between atoms: _517  and  _518
REMARK  218  A    between atoms: _517  and  _520
REMARK  219  A    between atoms: _520  and  _521
REMARK  220  A    between atoms: _524  and  _526
REMARK  221  A    between atoms: _526  and  _527
REMARK  222  A    between atoms: _529  and  _531
REMARK  223  A    between atoms: _531  and  _532
REMARK  224  A    between atoms: _531  and  _534
REMARK  225  A    between atoms: _534  and  _535
REMARK  226  A    between atoms: _535  and  _536
REMARK  227  A    between atoms: _536  and  _537
REMARK  228  A    between atoms: _546  and  _548
REMARK  229  A    between atoms: _548  and  _549
REMARK  230  A    between atoms: _548  and  _551
REMARK  231  A    between atoms: _551  and  _552
REMARK                            x       y       z     vdW  Elec       q    Type
REMARK                         _______ _______ _______ _____ _____    ______ ____
ROOT
ATOM      1  O   HOH     1      29.673  24.683  18.427  0.00  0.00    +0.000 OA
ENDROOT
TORSDOF 0
REMARK  Name = ../refined-set-2016/2qd8/2qd8_pocket.pdb
REMARK  231 active torsions:
REMARK  status: ('A' for Active; 'I' for Inactive)
REMARK    1  A    between atoms: _1  and  _3
REMARK    2  A    between atoms: _3  and  _4
REMARK    3  A    between atoms: _3  and  _6
REMARK    4  A    between atoms: _6  and  _7
REMARK    5  A    between atoms: _7  and  _8
REMARK    6  A    between atoms: _8  and  _9
REMARK    7  A    between atoms: _11  and  _15
REMARK    8  A    between atoms: _18  and  _20
REMARK    9  A    between atoms: _20  and  _21
REMARK   10  A    between atoms: _20  and  _23
REMARK   11  A    between atoms: _23  and  _24
REMARK   12  A    between atoms: _27  and  _29
REMARK   13  A    between atoms: _29  and  _30
REMARK   14  A    between atoms: _29  and  _32
REMARK   15  A    between atoms: _32  and  _33
REMARK   16  A    between atoms: _36  and  _38
REMARK   17  A    between atoms: _38  and  _39
REMARK   18  A    between atoms: _38  and  _41
REMARK   19  A    between atoms: _41  and  _42
REMARK   20  A    between atoms: _45  and  _47
REMARK   21  A    between atoms: _47  and  _48
REMARK   22  A    between atoms: _47  and  _50
REMARK   23  A    between atoms: _50  and  _51
REMARK   24  A    between atoms: _54  and  _56
REMARK   25  A    between atoms: _56  and  _57
REMARK   26  A    between atoms: _59  and  _61
REMARK   27  A    between atoms: _61  and  _62
REMARK   28  A    between atoms: _65  and  _67
REMARK   29  A    between atoms: _67  and  _68
REMARK   30  A    between atoms: _67  and  _70
REMARK   31  A    between atoms: _70  and  _71
REMARK   32  A    between atoms: _74  and  _76
REMARK   33  A    between atoms: _76  and  _77
REMARK   34  A    between atoms: _76  and  _79
REMARK   35  A    between atoms: _79  and  _80
REMARK   36  A    between atoms: _83  and  _85
REMARK   37  A    between atoms: _85  and  _86
REMARK   38  A    between atoms: _85  and  _88
REMARK   39  A    between atoms: _88  and  _89
REMARK   40  A    between atoms: _92  and  _94
REMARK   41  A    between atoms: _94  and  _95
REMARK   42  A    between atoms: _94  and  _97
REMARK   43  A    between atoms: _100  and  _102
REMARK   44  A    between atoms: _102  and  _103
REMARK   45  A    between atoms: _102  and  _105
REMARK   46  A    between atoms: _105  and  _106
REMARK   47  A    between atoms: _106  and  _107
REMARK   48  A    between atoms: _107  and  _108
REMARK   49  A    between atoms: _108  and  _109
REMARK   50  A    between atoms: _113  and  _115
REMARK   51  A    between atoms: _115  and  _116
REMARK   52  A    between atoms: _115  and  _118
REMARK   53  A    between atoms: _118  and  _119
REMARK   54  A    between atoms: _119  and  _120
REMARK   55  A    between atoms: _122  and  _124
REMARK   56  A    between atoms: _124  and  _125
REMARK   57  A    between atoms: _124  and  _127
REMARK   58  A    between atoms: _127  and  _128
REMARK   59  A    between atoms: _131  and  _133
REMARK   60  A    between atoms: _133  and  _134
REMARK   61  A    between atoms: _136  and  _138
REMARK   62  A    between atoms: _138  and  _139
REMARK   63  A    between atoms: _141  and  _143
REMARK   64  A    between atoms: _143  and  _144
REMARK   65  A    between atoms: _143  and  _146
REMARK   66  A    between atoms: _146  and  _147
REMARK   67  A    between atoms: _150  and  _152
REMARK   68  A    between atoms: _152  and  _153
REMARK   69  A    between atoms: _155  and  _157
REMARK   70  A    between atoms: _157  and  _158
REMARK   71  A    between atoms: _160  and  _162
REMARK   72  A    between atoms: _162  and  _163
REMARK   73  A    between atoms: _162  and  _165
REMARK   74  A    between atoms: _165  and  _166
REMARK   75  A    between atoms: _172  and  _174
REMARK   76  A    between atoms: _174  and  _175
REMARK   77  A    between atoms: _174  and  _177
REMARK   78  A    between atoms: _177  and  _178
REMARK   79  A    between atoms: _181  and  _183
REMARK   80  A    between atoms: _183  and  _184
REMARK   81  A    between atoms: _183  and  _186
REMARK   82  A    between atoms: _189  and  _191
REMARK   83  A    between atoms: _191  and  _192
REMARK   84  A    between atoms: _191  and  _194
REMARK   85  A    between atoms: _194  and  _195
REMARK   86  A    between atoms: _198  and  _200
REMARK   87  A    between atoms: _200  and  _201
REMARK   88  A    between atoms: _200  and  _203
REMARK   89  A    between atoms: _203  and  _204
REMARK   90  A    between atoms: _208  and  _209
REMARK   91  A    between atoms: _214  and  _216
REMARK   92  A    between atoms: _216  and  _217
REMARK   93  A    between atoms: _216  and  _219
REMARK   94  A    between atoms: _222  and  _224
REMARK   95  A    between atoms: _224  and  _225
REMARK   96  A    between atoms: _224  and  _227
REMARK   97  A    between atoms: _227  and  _228
REMARK   98  A    between atoms: _233  and  _235
REMARK   99  A    between atoms: _235  and  _236
REMARK  100  A    between atoms: _235  and  _238
REMARK  101  A    between atoms: _241  and  _243
REMARK  102  A    between atoms: _243  and  _244
REMARK  103  A    between atoms: _243  and  _246
REMARK  104  A    between atoms: _246  and  _247
REMARK  105  A    between atoms: _250  and  _252
REMARK  106  A    between atoms: _252  and  _253
REMARK  107  A    between atoms: _255  and  _257
REMARK  108  A    between atoms: _257  and  _258
REMARK  109  A    between atoms: _257  and  _260
REMARK  110  A    between atoms: _260  and  _261
REMARK  111  A    between atoms: _261  and  _262
REMARK  112  A    between atoms: _262  and  _263
REMARK  113  A    between atoms: _272  and  _274
REMARK  114  A    between atoms: _274  and  _275
REMARK  115  A    between atoms: _274  and  _277
REMARK  116  A    between atoms: _277  and  _278
REMARK  117  A    between atoms: _283  and  _285
REMARK  118  A    between atoms: _285  and  _286
REMARK  119  A    between atoms: _285  and  _288
REMARK  120  A    between atoms: _288  and  _289
REMARK  121  A    between atoms: _289  and  _290
REMARK  122  A    between atoms: _290  and  _291
REMARK  123  A    between atoms: _300  and  _302
REMARK  124  A    between atoms: _302  and  _303
REMARK  125  A    between atoms: _302  and  _305
REMARK  126  A    between atoms: _305  and  _306
REMARK  127  A    between atoms: _309  and  _311
REMARK  128  A    between atoms: _311  and  _312
REMARK  129  A    between atoms: _311  and  _314
REMARK  130  A    between atoms: _314  and  _315
REMARK  131  A    between atoms: _318  and  _320
REMARK  132  A    between atoms: _320  and  _321
REMARK  133  A    between atoms: _320  and  _323
REMARK  134  A    between atoms: _323  and  _324
REMARK  135  A    between atoms: _327  and  _329
REMARK  136  A    between atoms: _329  and  _330
REMARK  137  A    between atoms: _329  and  _332
REMARK  138  A    between atoms: _332  and  _333
REMARK  139  A    between atoms: _336  and  _338
REMARK  140  A    between atoms: _338  and  _339
REMARK  141  A    between atoms: _341  and  _343
REMARK  142  A    between atoms: _343  and  _344
REMARK  143  A    between atoms: _347  and  _349
REMARK  144  A    between atoms: _349  and  _350
REMARK  145  A    between atoms: _349  and  _352
REMARK  146  A    between atoms: _352  and  _353
REMARK  147  A    between atoms: _356  and  _358
REMARK  148  A    between atoms: _358  and  _359
REMARK  149  A    between atoms: _358  and  _361
REMARK  150  A    between atoms: _361  and  _362
REMARK  151  A    between atoms: _365  and  _367
REMARK  152  A    between atoms: _367  and  _368
REMARK  153  A    between atoms: _367  and  _370
REMARK  154  A    between atoms: _370  and  _371
REMARK  155  A    between atoms: _374  and  _376
REMARK  156  A    between atoms: _376  and  _377
REMARK  157  A    between atoms: _376  and  _379
REMARK  158  A    between atoms: _382  and  _384
REMARK  159  A    between atoms: _384  and  _385
REMARK  160  A    between atoms: _384  and  _387
REMARK  161  A    between atoms: _387  and  _388
REMARK  162  A    between atoms: _388  and  _389
REMARK  163  A    between atoms: _389  and  _390
REMARK  164  A    between atoms: _390  and  _391
REMARK  165  A    between atoms: _395  and  _397
REMARK  166  A    between atoms: _397  and  _398
REMARK  167  A    between atoms: _397  and  _400
REMARK  168  A    between atoms: _400  and  _401
REMARK  169  A    between atoms: _401  and  _402
REMARK  170  A    between atoms: _404  and  _406
REMARK  171  A    between atoms: _406  and  _407
REMARK  172  A    between atoms: _406  and  _409
REMARK  173  A    between atoms: _409  and  _410
REMARK  174  A    between atoms: _413  and  _415
REMARK  175  A    between atoms: _415  and  _416
REMARK  176  A    between atoms: _418  and  _420
REMARK  177  A    between atoms: _420  and  _421
REMARK  178  A    between atoms: _423  and  _425
REMARK  179  A    between atoms: _425  and  _426
REMARK  180  A    between atoms: _425  and  _428
REMARK  181  A    between atoms: _426  and  _427
REMARK  182  A    between atoms: _426  and  _432
REMARK  183  A    between atoms: _427  and  _592
REMARK  184  A    between atoms: _428  and  _429
REMARK  185  A    between atoms: _432  and  _434
REMARK  186  A    between atoms: _434  and  _435
REMARK  187  A    between atoms: _437  and  _439
REMARK  188  A    between atoms: _439  and  _440
REMARK  189  A    between atoms: _442  and  _444
REMARK  190  A    between atoms: _444  and  _445
REMARK  191  A    between atoms: _444  and  _447
REMARK  192  A    between atoms: _447  and  _448
REMARK  193  A    between atoms: _454  and  _456
REMARK  194  A    between atoms: _456  and  _457
REMARK  195  A    between atoms: _456  and  _459
REMARK  196  A    between atoms: _459  and  _460
REMARK  197  A    between atoms: _463  and  _465
REMARK  198  A    between atoms: _465  and  _466
REMARK  199  A    between atoms: _465  and  _468
REMARK  200  A    between atoms: _468  and  _469
REMARK  201  A    between atoms: _472  and  _474
REMARK  202  A    between atoms: _474  and  _475
REMARK  203  A    between atoms: _474  and  _477
REMARK  204  A    between atoms: _477  and  _478
REMARK  205  A    between atoms: _482  and  _483
REMARK  206  A    between atoms: _488  and  _490
REMARK  207  A    between atoms: _490  and  _491
REMARK  208  A    between atoms: _490  and  _493
REMARK  209  A    between atoms: _496  and  _498
REMARK  210  A    between atoms: _498  and  _499
REMARK  211  A    between atoms: _498  and  _501
REMARK  212  A    between atoms: _501  and  _502
REMARK  213  A    between atoms: _507  and  _509
REMARK  214  A    between atoms: _509  and  _510
REMARK  215  A    between atoms: _509  and  _512
REMARK  216  A    between atoms: _515  and  _517
REMARK  217  A    between atoms: _517  and  _518
REMARK  218  A    between atoms: _517  and  _520
REMARK  219  A    between atoms: _520  and  _521
REMARK  220  A    between atoms: _524  and  _526
REMARK  221  A    between atoms: _526  and  _527
REMARK  222  A    between atoms: _529  and  _531
REMARK  223  A    between atoms: _531  and  _532
REMARK  224  A    between atoms: _531  and  _534
REMARK  225  A    between atoms: _534  and  _535
REMARK  226  A    between atoms: _535  and  _536
REMARK  227  A    between atoms: _536  and  _537
REMARK  228  A    between atoms: _546  and  _548
REMARK  229  A    between atoms: _548  and  _549
REMARK  230  A    between atoms: _548  and  _551
REMARK  231  A    between atoms: _551  and  _552
REMARK                            x       y       z     vdW  Elec       q    Type
REMARK                         _______ _______ _______ _____ _____    ______ ____
ROOT
ATOM      1  O   HOH     1      11.204  17.589   7.656  0.00  0.00    +0.000 OA
ENDROOT
TORSDOF 0
REMARK  Name = ../refined-set-2016/2qd8/2qd8_pocket.pdb
REMARK  231 active torsions:
REMARK  status: ('A' for Active; 'I' for Inactive)
REMARK    1  A    between atoms: _1  and  _3
REMARK    2  A    between atoms: _3  and  _4
REMARK    3  A    between atoms: _3  and  _6
REMARK    4  A    between atoms: _6  and  _7
REMARK    5  A    between atoms: _7  and  _8
REMARK    6  A    between atoms: _8  and  _9
REMARK    7  A    between atoms: _11  and  _15
REMARK    8  A    between atoms: _18  and  _20
REMARK    9  A    between atoms: _20  and  _21
REMARK   10  A    between atoms: _20  and  _23
REMARK   11  A    between atoms: _23  and  _24
REMARK   12  A    between atoms: _27  and  _29
REMARK   13  A    between atoms: _29  and  _30
REMARK   14  A    between atoms: _29  and  _32
REMARK   15  A    between atoms: _32  and  _33
REMARK   16  A    between atoms: _36  and  _38
REMARK   17  A    between atoms: _38  and  _39
REMARK   18  A    between atoms: _38  and  _41
REMARK   19  A    between atoms: _41  and  _42
REMARK   20  A    between atoms: _45  and  _47
REMARK   21  A    between atoms: _47  and  _48
REMARK   22  A    between atoms: _47  and  _50
REMARK   23  A    between atoms: _50  and  _51
REMARK   24  A    between atoms: _54  and  _56
REMARK   25  A    between atoms: _56  and  _57
REMARK   26  A    between atoms: _59  and  _61
REMARK   27  A    between atoms: _61  and  _62
REMARK   28  A    between atoms: _65  and  _67
REMARK   29  A    between atoms: _67  and  _68
REMARK   30  A    between atoms: _67  and  _70
REMARK   31  A    between atoms: _70  and  _71
REMARK   32  A    between atoms: _74  and  _76
REMARK   33  A    between atoms: _76  and  _77
REMARK   34  A    between atoms: _76  and  _79
REMARK   35  A    between atoms: _79  and  _80
REMARK   36  A    between atoms: _83  and  _85
REMARK   37  A    between atoms: _85  and  _86
REMARK   38  A    between atoms: _85  and  _88
REMARK   39  A    between atoms: _88  and  _89
REMARK   40  A    between atoms: _92  and  _94
REMARK   41  A    between atoms: _94  and  _95
REMARK   42  A    between atoms: _94  and  _97
REMARK   43  A    between atoms: _100  and  _102
REMARK   44  A    between atoms: _102  and  _103
REMARK   45  A    between atoms: _102  and  _105
REMARK   46  A    between atoms: _105  and  _106
REMARK   47  A    between atoms: _106  and  _107
REMARK   48  A    between atoms: _107  and  _108
REMARK   49  A    between atoms: _108  and  _109
REMARK   50  A    between atoms: _113  and  _115
REMARK   51  A    between atoms: _115  and  _116
REMARK   52  A    between atoms: _115  and  _118
REMARK   53  A    between atoms: _118  and  _119
REMARK   54  A    between atoms: _119  and  _120
REMARK   55  A    between atoms: _122  and  _124
REMARK   56  A    between atoms: _124  and  _125
REMARK   57  A    between atoms: _124  and  _127
REMARK   58  A    between atoms: _127  and  _128
REMARK   59  A    between atoms: _131  and  _133
REMARK   60  A    between atoms: _133  and  _134
REMARK   61  A    between atoms: _136  and  _138
REMARK   62  A    between atoms: _138  and  _139
REMARK   63  A    between atoms: _141  and  _143
REMARK   64  A    between atoms: _143  and  _144
REMARK   65  A    between atoms: _143  and  _146
REMARK   66  A    between atoms: _146  and  _147
REMARK   67  A    between atoms: _150  and  _152
REMARK   68  A    between atoms: _152  and  _153
REMARK   69  A    between atoms: _155  and  _157
REMARK   70  A    between atoms: _157  and  _158
REMARK   71  A    between atoms: _160  and  _162
REMARK   72  A    between atoms: _162  and  _163
REMARK   73  A    between atoms: _162  and  _165
REMARK   74  A    between atoms: _165  and  _166
REMARK   75  A    between atoms: _172  and  _174
REMARK   76  A    between atoms: _174  and  _175
REMARK   77  A    between atoms: _174  and  _177
REMARK   78  A    between atoms: _177  and  _178
REMARK   79  A    between atoms: _181  and  _183
REMARK   80  A    between atoms: _183  and  _184
REMARK   81  A    between atoms: _183  and  _186
REMARK   82  A    between atoms: _189  and  _191
REMARK   83  A    between atoms: _191  and  _192
REMARK   84  A    between atoms: _191  and  _194
REMARK   85  A    between atoms: _194  and  _195
REMARK   86  A    between atoms: _198  and  _200
REMARK   87  A    between atoms: _200  and  _201
REMARK   88  A    between atoms: _200  and  _203
REMARK   89  A    between atoms: _203  and  _204
REMARK   90  A    between atoms: _208  and  _209
REMARK   91  A    between atoms: _214  and  _216
REMARK   92  A    between atoms: _216  and  _217
REMARK   93  A    between atoms: _216  and  _219
REMARK   94  A    between atoms: _222  and  _224
REMARK   95  A    between atoms: _224  and  _225
REMARK   96  A    between atoms: _224  and  _227
REMARK   97  A    between atoms: _227  and  _228
REMARK   98  A    between atoms: _233  and  _235
REMARK   99  A    between atoms: _235  and  _236
REMARK  100  A    between atoms: _235  and  _238
REMARK  101  A    between atoms: _241  and  _243
REMARK  102  A    between atoms: _243  and  _244
REMARK  103  A    between atoms: _243  and  _246
REMARK  104  A    between atoms: _246  and  _247
REMARK  105  A    between atoms: _250  and  _252
REMARK  106  A    between atoms: _252  and  _253
REMARK  107  A    between atoms: _255  and  _257
REMARK  108  A    between atoms: _257  and  _258
REMARK  109  A    between atoms: _257  and  _260
REMARK  110  A    between atoms: _260  and  _261
REMARK  111  A    between atoms: _261  and  _262
REMARK  112  A    between atoms: _262  and  _263
REMARK  113  A    between atoms: _272  and  _274
REMARK  114  A    between atoms: _274  and  _275
REMARK  115  A    between atoms: _274  and  _277
REMARK  116  A    between atoms: _277  and  _278
REMARK  117  A    between atoms: _283  and  _285
REMARK  118  A    between atoms: _285  and  _286
REMARK  119  A    between atoms: _285  and  _288
REMARK  120  A    between atoms: _288  and  _289
REMARK  121  A    between atoms: _289  and  _290
REMARK  122  A    between atoms: _290  and  _291
REMARK  123  A    between atoms: _300  and  _302
REMARK  124  A    between atoms: _302  and  _303
REMARK  125  A    between atoms: _302  and  _305
REMARK  126  A    between atoms: _305  and  _306
REMARK  127  A    between atoms: _309  and  _311
REMARK  128  A    between atoms: _311  and  _312
REMARK  129  A    between atoms: _311  and  _314
REMARK  130  A    between atoms: _314  and  _315
REMARK  131  A    between atoms: _318  and  _320
REMARK  132  A    between atoms: _320  and  _321
REMARK  133  A    between atoms: _320  and  _323
REMARK  134  A    between atoms: _323  and  _324
REMARK  135  A    between atoms: _327  and  _329
REMARK  136  A    between atoms: _329  and  _330
REMARK  137  A    between atoms: _329  and  _332
REMARK  138  A    between atoms: _332  and  _333
REMARK  139  A    between atoms: _336  and  _338
REMARK  140  A    between atoms: _338  and  _339
REMARK  141  A    between atoms: _341  and  _343
REMARK  142  A    between atoms: _343  and  _344
REMARK  143  A    between atoms: _347  and  _349
REMARK  144  A    between atoms: _349  and  _350
REMARK  145  A    between atoms: _349  and  _352
REMARK  146  A    between atoms: _352  and  _353
REMARK  147  A    between atoms: _356  and  _358
REMARK  148  A    between atoms: _358  and  _359
REMARK  149  A    between atoms: _358  and  _361
REMARK  150  A    between atoms: _361  and  _362
REMARK  151  A    between atoms: _365  and  _367
REMARK  152  A    between atoms: _367  and  _368
REMARK  153  A    between atoms: _367  and  _370
REMARK  154  A    between atoms: _370  and  _371
REMARK  155  A    between atoms: _374  and  _376
REMARK  156  A    between atoms: _376  and  _377
REMARK  157  A    between atoms: _376  and  _379
REMARK  158  A    between atoms: _382  and  _384
REMARK  159  A    between atoms: _384  and  _385
REMARK  160  A    between atoms: _384  and  _387
REMARK  161  A    between atoms: _387  and  _388
REMARK  162  A    between atoms: _388  and  _389
REMARK  163  A    between atoms: _389  and  _390
REMARK  164  A    between atoms: _390  and  _391
REMARK  165  A    between atoms: _395  and  _397
REMARK  166  A    between atoms: _397  and  _398
REMARK  167  A    between atoms: _397  and  _400
REMARK  168  A    between atoms: _400  and  _401
REMARK  169  A    between atoms: _401  and  _402
REMARK  170  A    between atoms: _404  and  _406
REMARK  171  A    between atoms: _406  and  _407
REMARK  172  A    between atoms: _406  and  _409
REMARK  173  A    between atoms: _409  and  _410
REMARK  174  A    between atoms: _413  and  _415
REMARK  175  A    between atoms: _415  and  _416
REMARK  176  A    between atoms: _418  and  _420
REMARK  177  A    between atoms: _420  and  _421
REMARK  178  A    between atoms: _423  and  _425
REMARK  179  A    between atoms: _425  and  _426
REMARK  180  A    between atoms: _425  and  _428
REMARK  181  A    between atoms: _426  and  _427
REMARK  182  A    between atoms: _426  and  _432
REMARK  183  A    between atoms: _427  and  _592
REMARK  184  A    between atoms: _428  and  _429
REMARK  185  A    between atoms: _432  and  _434
REMARK  186  A    between atoms: _434  and  _435
REMARK  187  A    between atoms: _437  and  _439
REMARK  188  A    between atoms: _439  and  _440
REMARK  189  A    between atoms: _442  and  _444
REMARK  190  A    between atoms: _444  and  _445
REMARK  191  A    between atoms: _444  and  _447
REMARK  192  A    between atoms: _447  and  _448
REMARK  193  A    between atoms: _454  and  _456
REMARK  194  A    between atoms: _456  and  _457
REMARK  195  A    between atoms: _456  and  _459
REMARK  196  A    between atoms: _459  and  _460
REMARK  197  A    between atoms: _463  and  _465
REMARK  198  A    between atoms: _465  and  _466
REMARK  199  A    between atoms: _465  and  _468
REMARK  200  A    between atoms: _468  and  _469
REMARK  201  A    between atoms: _472  and  _474
REMARK  202  A    between atoms: _474  and  _475
REMARK  203  A    between atoms: _474  and  _477
REMARK  204  A    between atoms: _477  and  _478
REMARK  205  A    between atoms: _482  and  _483
REMARK  206  A    between atoms: _488  and  _490
REMARK  207  A    between atoms: _490  and  _491
REMARK  208  A    between atoms: _490  and  _493
REMARK  209  A    between atoms: _496  and  _498
REMARK  210  A    between atoms: _498  and  _499
REMARK  211  A    between atoms: _498  and  _501
REMARK  212  A    between atoms: _501  and  _502
REMARK  213  A    between atoms: _507  and  _509
REMARK  214  A    between atoms: _509  and  _510
REMARK  215  A    between atoms: _509  and  _512
REMARK  216  A    between atoms: _515  and  _517
REMARK  217  A    between atoms: _517  and  _518
REMARK  218  A    between atoms: _517  and  _520
REMARK  219  A    between atoms: _520  and  _521
REMARK  220  A    between atoms: _524  and  _526
REMARK  221  A    between atoms: _526  and  _527
REMARK  222  A    between atoms: _529  and  _531
REMARK  223  A    between atoms: _531  and  _532
REMARK  224  A    between atoms: _531  and  _534
REMARK  225  A    between atoms: _534  and  _535
REMARK  226  A    between atoms: _535  and  _536
REMARK  227  A    between atoms: _536  and  _537
REMARK  228  A    between atoms: _546  and  _548
REMARK  229  A    between atoms: _548  and  _549
REMARK  230  A    between atoms: _548  and  _551
REMARK  231  A    between atoms: _551  and  _552
REMARK                            x       y       z     vdW  Elec       q    Type
REMARK                         _______ _______ _______ _____ _____    ______ ____
ROOT
ATOM      1  O   HOH     1       9.636  18.286  12.943  0.00  0.00    +0.000 OA
ENDROOT
TORSDOF 0
REMARK  Name = ../refined-set-2016/2qd8/2qd8_pocket.pdb
REMARK  231 active torsions:
REMARK  status: ('A' for Active; 'I' for Inactive)
REMARK    1  A    between atoms: _1  and  _3
REMARK    2  A    between atoms: _3  and  _4
REMARK    3  A    between atoms: _3  and  _6
REMARK    4  A    between atoms: _6  and  _7
REMARK    5  A    between atoms: _7  and  _8
REMARK    6  A    between atoms: _8  and  _9
REMARK    7  A    between atoms: _11  and  _15
REMARK    8  A    between atoms: _18  and  _20
REMARK    9  A    between atoms: _20  and  _21
REMARK   10  A    between atoms: _20  and  _23
REMARK   11  A    between atoms: _23  and  _24
REMARK   12  A    between atoms: _27  and  _29
REMARK   13  A    between atoms: _29  and  _30
REMARK   14  A    between atoms: _29  and  _32
REMARK   15  A    between atoms: _32  and  _33
REMARK   16  A    between atoms: _36  and  _38
REMARK   17  A    between atoms: _38  and  _39
REMARK   18  A    between atoms: _38  and  _41
REMARK   19  A    between atoms: _41  and  _42
REMARK   20  A    between atoms: _45  and  _47
REMARK   21  A    between atoms: _47  and  _48
REMARK   22  A    between atoms: _47  and  _50
REMARK   23  A    between atoms: _50  and  _51
REMARK   24  A    between atoms: _54  and  _56
REMARK   25  A    between atoms: _56  and  _57
REMARK   26  A    between atoms: _59  and  _61
REMARK   27  A    between atoms: _61  and  _62
REMARK   28  A    between atoms: _65  and  _67
REMARK   29  A    between atoms: _67  and  _68
REMARK   30  A    between atoms: _67  and  _70
REMARK   31  A    between atoms: _70  and  _71
REMARK   32  A    between atoms: _74  and  _76
REMARK   33  A    between atoms: _76  and  _77
REMARK   34  A    between atoms: _76  and  _79
REMARK   35  A    between atoms: _79  and  _80
REMARK   36  A    between atoms: _83  and  _85
REMARK   37  A    between atoms: _85  and  _86
REMARK   38  A    between atoms: _85  and  _88
REMARK   39  A    between atoms: _88  and  _89
REMARK   40  A    between atoms: _92  and  _94
REMARK   41  A    between atoms: _94  and  _95
REMARK   42  A    between atoms: _94  and  _97
REMARK   43  A    between atoms: _100  and  _102
REMARK   44  A    between atoms: _102  and  _103
REMARK   45  A    between atoms: _102  and  _105
REMARK   46  A    between atoms: _105  and  _106
REMARK   47  A    between atoms: _106  and  _107
REMARK   48  A    between atoms: _107  and  _108
REMARK   49  A    between atoms: _108  and  _109
REMARK   50  A    between atoms: _113  and  _115
REMARK   51  A    between atoms: _115  and  _116
REMARK   52  A    between atoms: _115  and  _118
REMARK   53  A    between atoms: _118  and  _119
REMARK   54  A    between atoms: _119  and  _120
REMARK   55  A    between atoms: _122  and  _124
REMARK   56  A    between atoms: _124  and  _125
REMARK   57  A    between atoms: _124  and  _127
REMARK   58  A    between atoms: _127  and  _128
REMARK   59  A    between atoms: _131  and  _133
REMARK   60  A    between atoms: _133  and  _134
REMARK   61  A    between atoms: _136  and  _138
REMARK   62  A    between atoms: _138  and  _139
REMARK   63  A    between atoms: _141  and  _143
REMARK   64  A    between atoms: _143  and  _144
REMARK   65  A    between atoms: _143  and  _146
REMARK   66  A    between atoms: _146  and  _147
REMARK   67  A    between atoms: _150  and  _152
REMARK   68  A    between atoms: _152  and  _153
REMARK   69  A    between atoms: _155  and  _157
REMARK   70  A    between atoms: _157  and  _158
REMARK   71  A    between atoms: _160  and  _162
REMARK   72  A    between atoms: _162  and  _163
REMARK   73  A    between atoms: _162  and  _165
REMARK   74  A    between atoms: _165  and  _166
REMARK   75  A    between atoms: _172  and  _174
REMARK   76  A    between atoms: _174  and  _175
REMARK   77  A    between atoms: _174  and  _177
REMARK   78  A    between atoms: _177  and  _178
REMARK   79  A    between atoms: _181  and  _183
REMARK   80  A    between atoms: _183  and  _184
REMARK   81  A    between atoms: _183  and  _186
REMARK   82  A    between atoms: _189  and  _191
REMARK   83  A    between atoms: _191  and  _192
REMARK   84  A    between atoms: _191  and  _194
REMARK   85  A    between atoms: _194  and  _195
REMARK   86  A    between atoms: _198  and  _200
REMARK   87  A    between atoms: _200  and  _201
REMARK   88  A    between atoms: _200  and  _203
REMARK   89  A    between atoms: _203  and  _204
REMARK   90  A    between atoms: _208  and  _209
REMARK   91  A    between atoms: _214  and  _216
REMARK   92  A    between atoms: _216  and  _217
REMARK   93  A    between atoms: _216  and  _219
REMARK   94  A    between atoms: _222  and  _224
REMARK   95  A    between atoms: _224  and  _225
REMARK   96  A    between atoms: _224  and  _227
REMARK   97  A    between atoms: _227  and  _228
REMARK   98  A    between atoms: _233  and  _235
REMARK   99  A    between atoms: _235  and  _236
REMARK  100  A    between atoms: _235  and  _238
REMARK  101  A    between atoms: _241  and  _243
REMARK  102  A    between atoms: _243  and  _244
REMARK  103  A    between atoms: _243  and  _246
REMARK  104  A    between atoms: _246  and  _247
REMARK  105  A    between atoms: _250  and  _252
REMARK  106  A    between atoms: _252  and  _253
REMARK  107  A    between atoms: _255  and  _257
REMARK  108  A    between atoms: _257  and  _258
REMARK  109  A    between atoms: _257  and  _260
REMARK  110  A    between atoms: _260  and  _261
REMARK  111  A    between atoms: _261  and  _262
REMARK  112  A    between atoms: _262  and  _263
REMARK  113  A    between atoms: _272  and  _274
REMARK  114  A    between atoms: _274  and  _275
REMARK  115  A    between atoms: _274  and  _277
REMARK  116  A    between atoms: _277  and  _278
REMARK  117  A    between atoms: _283  and  _285
REMARK  118  A    between atoms: _285  and  _286
REMARK  119  A    between atoms: _285  and  _288
REMARK  120  A    between atoms: _288  and  _289
REMARK  121  A    between atoms: _289  and  _290
REMARK  122  A    between atoms: _290  and  _291
REMARK  123  A    between atoms: _300  and  _302
REMARK  124  A    between atoms: _302  and  _303
REMARK  125  A    between atoms: _302  and  _305
REMARK  126  A    between atoms: _305  and  _306
REMARK  127  A    between atoms: _309  and  _311
REMARK  128  A    between atoms: _311  and  _312
REMARK  129  A    between atoms: _311  and  _314
REMARK  130  A    between atoms: _314  and  _315
REMARK  131  A    between atoms: _318  and  _320
REMARK  132  A    between atoms: _320  and  _321
REMARK  133  A    between atoms: _320  and  _323
REMARK  134  A    between atoms: _323  and  _324
REMARK  135  A    between atoms: _327  and  _329
REMARK  136  A    between atoms: _329  and  _330
REMARK  137  A    between atoms: _329  and  _332
REMARK  138  A    between atoms: _332  and  _333
REMARK  139  A    between atoms: _336  and  _338
REMARK  140  A    between atoms: _338  and  _339
REMARK  141  A    between atoms: _341  and  _343
REMARK  142  A    between atoms: _343  and  _344
REMARK  143  A    between atoms: _347  and  _349
REMARK  144  A    between atoms: _349  and  _350
REMARK  145  A    between atoms: _349  and  _352
REMARK  146  A    between atoms: _352  and  _353
REMARK  147  A    between atoms: _356  and  _358
REMARK  148  A    between atoms: _358  and  _359
REMARK  149  A    between atoms: _358  and  _361
REMARK  150  A    between atoms: _361  and  _362
REMARK  151  A    between atoms: _365  and  _367
REMARK  152  A    between atoms: _367  and  _368
REMARK  153  A    between atoms: _367  and  _370
REMARK  154  A    between atoms: _370  and  _371
REMARK  155  A    between atoms: _374  and  _376
REMARK  156  A    between atoms: _376  and  _377
REMARK  157  A    between atoms: _376  and  _379
REMARK  158  A    between atoms: _382  and  _384
REMARK  159  A    between atoms: _384  and  _385
REMARK  160  A    between atoms: _384  and  _387
REMARK  161  A    between atoms: _387  and  _388
REMARK  162  A    between atoms: _388  and  _389
REMARK  163  A    between atoms: _389  and  _390
REMARK  164  A    between atoms: _390  and  _391
REMARK  165  A    between atoms: _395  and  _397
REMARK  166  A    between atoms: _397  and  _398
REMARK  167  A    between atoms: _397  and  _400
REMARK  168  A    between atoms: _400  and  _401
REMARK  169  A    between atoms: _401  and  _402
REMARK  170  A    between atoms: _404  and  _406
REMARK  171  A    between atoms: _406  and  _407
REMARK  172  A    between atoms: _406  and  _409
REMARK  173  A    between atoms: _409  and  _410
REMARK  174  A    between atoms: _413  and  _415
REMARK  175  A    between atoms: _415  and  _416
REMARK  176  A    between atoms: _418  and  _420
REMARK  177  A    between atoms: _420  and  _421
REMARK  178  A    between atoms: _423  and  _425
REMARK  179  A    between atoms: _425  and  _426
REMARK  180  A    between atoms: _425  and  _428
REMARK  181  A    between atoms: _426  and  _427
REMARK  182  A    between atoms: _426  and  _432
REMARK  183  A    between atoms: _427  and  _592
REMARK  184  A    between atoms: _428  and  _429
REMARK  185  A    between atoms: _432  and  _434
REMARK  186  A    between atoms: _434  and  _435
REMARK  187  A    between atoms: _437  and  _439
REMARK  188  A    between atoms: _439  and  _440
REMARK  189  A    between atoms: _442  and  _444
REMARK  190  A    between atoms: _444  and  _445
REMARK  191  A    between atoms: _444  and  _447
REMARK  192  A    between atoms: _447  and  _448
REMARK  193  A    between atoms: _454  and  _456
REMARK  194  A    between atoms: _456  and  _457
REMARK  195  A    between atoms: _456  and  _459
REMARK  196  A    between atoms: _459  and  _460
REMARK  197  A    between atoms: _463  and  _465
REMARK  198  A    between atoms: _465  and  _466
REMARK  199  A    between atoms: _465  and  _468
REMARK  200  A    between atoms: _468  and  _469
REMARK  201  A    between atoms: _472  and  _474
REMARK  202  A    between atoms: _474  and  _475
REMARK  203  A    between atoms: _474  and  _477
REMARK  204  A    between atoms: _477  and  _478
REMARK  205  A    between atoms: _482  and  _483
REMARK  206  A    between atoms: _488  and  _490
REMARK  207  A    between atoms: _490  and  _491
REMARK  208  A    between atoms: _490  and  _493
REMARK  209  A    between atoms: _496  and  _498
REMARK  210  A    between atoms: _498  and  _499
REMARK  211  A    between atoms: _498  and  _501
REMARK  212  A    between atoms: _501  and  _502
REMARK  213  A    between atoms: _507  and  _509
REMARK  214  A    between atoms: _509  and  _510
REMARK  215  A    between atoms: _509  and  _512
REMARK  216  A    between atoms: _515  and  _517
REMARK  217  A    between atoms: _517  and  _518
REMARK  218  A    between atoms: _517  and  _520
REMARK  219  A    between atoms: _520  and  _521
REMARK  220  A    between atoms: _524  and  _526
REMARK  221  A    between atoms: _526  and  _527
REMARK  222  A    between atoms: _529  and  _531
REMARK  223  A    between atoms: _531  and  _532
REMARK  224  A    between atoms: _531  and  _534
REMARK  225  A    between atoms: _534  and  _535
REMARK  226  A    between atoms: _535  and  _536
REMARK  227  A    between atoms: _536  and  _537
REMARK  228  A    between atoms: _546  and  _548
REMARK  229  A    between atoms: _548  and  _549
REMARK  230  A    between atoms: _548  and  _551
REMARK  231  A    between atoms: _551  and  _552
REMARK                            x       y       z     vdW  Elec       q    Type
REMARK                         _______ _______ _______ _____ _____    ______ ____
ROOT
ATOM      1  O   HOH     1       7.386  23.997  18.162  0.00  0.00    +0.000 OA
ENDROOT
TORSDOF 0
REMARK  Name = ../refined-set-2016/2qd8/2qd8_pocket.pdb
REMARK  231 active torsions:
REMARK  status: ('A' for Active; 'I' for Inactive)
REMARK    1  A    between atoms: _1  and  _3
REMARK    2  A    between atoms: _3  and  _4
REMARK    3  A    between atoms: _3  and  _6
REMARK    4  A    between atoms: _6  and  _7
REMARK    5  A    between atoms: _7  and  _8
REMARK    6  A    between atoms: _8  and  _9
REMARK    7  A    between atoms: _11  and  _15
REMARK    8  A    between atoms: _18  and  _20
REMARK    9  A    between atoms: _20  and  _21
REMARK   10  A    between atoms: _20  and  _23
REMARK   11  A    between atoms: _23  and  _24
REMARK   12  A    between atoms: _27  and  _29
REMARK   13  A    between atoms: _29  and  _30
REMARK   14  A    between atoms: _29  and  _32
REMARK   15  A    between atoms: _32  and  _33
REMARK   16  A    between atoms: _36  and  _38
REMARK   17  A    between atoms: _38  and  _39
REMARK   18  A    between atoms: _38  and  _41
REMARK   19  A    between atoms: _41  and  _42
REMARK   20  A    between atoms: _45  and  _47
REMARK   21  A    between atoms: _47  and  _48
REMARK   22  A    between atoms: _47  and  _50
REMARK   23  A    between atoms: _50  and  _51
REMARK   24  A    between atoms: _54  and  _56
REMARK   25  A    between atoms: _56  and  _57
REMARK   26  A    between atoms: _59  and  _61
REMARK   27  A    between atoms: _61  and  _62
REMARK   28  A    between atoms: _65  and  _67
REMARK   29  A    between atoms: _67  and  _68
REMARK   30  A    between atoms: _67  and  _70
REMARK   31  A    between atoms: _70  and  _71
REMARK   32  A    between atoms: _74  and  _76
REMARK   33  A    between atoms: _76  and  _77
REMARK   34  A    between atoms: _76  and  _79
REMARK   35  A    between atoms: _79  and  _80
REMARK   36  A    between atoms: _83  and  _85
REMARK   37  A    between atoms: _85  and  _86
REMARK   38  A    between atoms: _85  and  _88
REMARK   39  A    between atoms: _88  and  _89
REMARK   40  A    between atoms: _92  and  _94
REMARK   41  A    between atoms: _94  and  _95
REMARK   42  A    between atoms: _94  and  _97
REMARK   43  A    between atoms: _100  and  _102
REMARK   44  A    between atoms: _102  and  _103
REMARK   45  A    between atoms: _102  and  _105
REMARK   46  A    between atoms: _105  and  _106
REMARK   47  A    between atoms: _106  and  _107
REMARK   48  A    between atoms: _107  and  _108
REMARK   49  A    between atoms: _108  and  _109
REMARK   50  A    between atoms: _113  and  _115
REMARK   51  A    between atoms: _115  and  _116
REMARK   52  A    between atoms: _115  and  _118
REMARK   53  A    between atoms: _118  and  _119
REMARK   54  A    between atoms: _119  and  _120
REMARK   55  A    between atoms: _122  and  _124
REMARK   56  A    between atoms: _124  and  _125
REMARK   57  A    between atoms: _124  and  _127
REMARK   58  A    between atoms: _127  and  _128
REMARK   59  A    between atoms: _131  and  _133
REMARK   60  A    between atoms: _133  and  _134
REMARK   61  A    between atoms: _136  and  _138
REMARK   62  A    between atoms: _138  and  _139
REMARK   63  A    between atoms: _141  and  _143
REMARK   64  A    between atoms: _143  and  _144
REMARK   65  A    between atoms: _143  and  _146
REMARK   66  A    between atoms: _146  and  _147
REMARK   67  A    between atoms: _150  and  _152
REMARK   68  A    between atoms: _152  and  _153
REMARK   69  A    between atoms: _155  and  _157
REMARK   70  A    between atoms: _157  and  _158
REMARK   71  A    between atoms: _160  and  _162
REMARK   72  A    between atoms: _162  and  _163
REMARK   73  A    between atoms: _162  and  _165
REMARK   74  A    between atoms: _165  and  _166
REMARK   75  A    between atoms: _172  and  _174
REMARK   76  A    between atoms: _174  and  _175
REMARK   77  A    between atoms: _174  and  _177
REMARK   78  A    between atoms: _177  and  _178
REMARK   79  A    between atoms: _181  and  _183
REMARK   80  A    between atoms: _183  and  _184
REMARK   81  A    between atoms: _183  and  _186
REMARK   82  A    between atoms: _189  and  _191
REMARK   83  A    between atoms: _191  and  _192
REMARK   84  A    between atoms: _191  and  _194
REMARK   85  A    between atoms: _194  and  _195
REMARK   86  A    between atoms: _198  and  _200
REMARK   87  A    between atoms: _200  and  _201
REMARK   88  A    between atoms: _200  and  _203
REMARK   89  A    between atoms: _203  and  _204
REMARK   90  A    between atoms: _208  and  _209
REMARK   91  A    between atoms: _214  and  _216
REMARK   92  A    between atoms: _216  and  _217
REMARK   93  A    between atoms: _216  and  _219
REMARK   94  A    between atoms: _222  and  _224
REMARK   95  A    between atoms: _224  and  _225
REMARK   96  A    between atoms: _224  and  _227
REMARK   97  A    between atoms: _227  and  _228
REMARK   98  A    between atoms: _233  and  _235
REMARK   99  A    between atoms: _235  and  _236
REMARK  100  A    between atoms: _235  and  _238
REMARK  101  A    between atoms: _241  and  _243
REMARK  102  A    between atoms: _243  and  _244
REMARK  103  A    between atoms: _243  and  _246
REMARK  104  A    between atoms: _246  and  _247
REMARK  105  A    between atoms: _250  and  _252
REMARK  106  A    between atoms: _252  and  _253
REMARK  107  A    between atoms: _255  and  _257
REMARK  108  A    between atoms: _257  and  _258
REMARK  109  A    between atoms: _257  and  _260
REMARK  110  A    between atoms: _260  and  _261
REMARK  111  A    between atoms: _261  and  _262
REMARK  112  A    between atoms: _262  and  _263
REMARK  113  A    between atoms: _272  and  _274
REMARK  114  A    between atoms: _274  and  _275
REMARK  115  A    between atoms: _274  and  _277
REMARK  116  A    between atoms: _277  and  _278
REMARK  117  A    between atoms: _283  and  _285
REMARK  118  A    between atoms: _285  and  _286
REMARK  119  A    between atoms: _285  and  _288
REMARK  120  A    between atoms: _288  and  _289
REMARK  121  A    between atoms: _289  and  _290
REMARK  122  A    between atoms: _290  and  _291
REMARK  123  A    between atoms: _300  and  _302
REMARK  124  A    between atoms: _302  and  _303
REMARK  125  A    between atoms: _302  and  _305
REMARK  126  A    between atoms: _305  and  _306
REMARK  127  A    between atoms: _309  and  _311
REMARK  128  A    between atoms: _311  and  _312
REMARK  129  A    between atoms: _311  and  _314
REMARK  130  A    between atoms: _314  and  _315
REMARK  131  A    between atoms: _318  and  _320
REMARK  132  A    between atoms: _320  and  _321
REMARK  133  A    between atoms: _320  and  _323
REMARK  134  A    between atoms: _323  and  _324
REMARK  135  A    between atoms: _327  and  _329
REMARK  136  A    between atoms: _329  and  _330
REMARK  137  A    between atoms: _329  and  _332
REMARK  138  A    between atoms: _332  and  _333
REMARK  139  A    between atoms: _336  and  _338
REMARK  140  A    between atoms: _338  and  _339
REMARK  141  A    between atoms: _341  and  _343
REMARK  142  A    between atoms: _343  and  _344
REMARK  143  A    between atoms: _347  and  _349
REMARK  144  A    between atoms: _349  and  _350
REMARK  145  A    between atoms: _349  and  _352
REMARK  146  A    between atoms: _352  and  _353
REMARK  147  A    between atoms: _356  and  _358
REMARK  148  A    between atoms: _358  and  _359
REMARK  149  A    between atoms: _358  and  _361
REMARK  150  A    between atoms: _361  and  _362
REMARK  151  A    between atoms: _365  and  _367
REMARK  152  A    between atoms: _367  and  _368
REMARK  153  A    between atoms: _367  and  _370
REMARK  154  A    between atoms: _370  and  _371
REMARK  155  A    between atoms: _374  and  _376
REMARK  156  A    between atoms: _376  and  _377
REMARK  157  A    between atoms: _376  and  _379
REMARK  158  A    between atoms: _382  and  _384
REMARK  159  A    between atoms: _384  and  _385
REMARK  160  A    between atoms: _384  and  _387
REMARK  161  A    between atoms: _387  and  _388
REMARK  162  A    between atoms: _388  and  _389
REMARK  163  A    between atoms: _389  and  _390
REMARK  164  A    between atoms: _390  and  _391
REMARK  165  A    between atoms: _395  and  _397
REMARK  166  A    between atoms: _397  and  _398
REMARK  167  A    between atoms: _397  and  _400
REMARK  168  A    between atoms: _400  and  _401
REMARK  169  A    between atoms: _401  and  _402
REMARK  170  A    between atoms: _404  and  _406
REMARK  171  A    between atoms: _406  and  _407
REMARK  172  A    between atoms: _406  and  _409
REMARK  173  A    between atoms: _409  and  _410
REMARK  174  A    between atoms: _413  and  _415
REMARK  175  A    between atoms: _415  and  _416
REMARK  176  A    between atoms: _418  and  _420
REMARK  177  A    between atoms: _420  and  _421
REMARK  178  A    between atoms: _423  and  _425
REMARK  179  A    between atoms: _425  and  _426
REMARK  180  A    between atoms: _425  and  _428
REMARK  181  A    between atoms: _426  and  _427
REMARK  182  A    between atoms: _426  and  _432
REMARK  183  A    between atoms: _427  and  _592
REMARK  184  A    between atoms: _428  and  _429
REMARK  185  A    between atoms: _432  and  _434
REMARK  186  A    between atoms: _434  and  _435
REMARK  187  A    between atoms: _437  and  _439
REMARK  188  A    between atoms: _439  and  _440
REMARK  189  A    between atoms: _442  and  _444
REMARK  190  A    between atoms: _444  and  _445
REMARK  191  A    between atoms: _444  and  _447
REMARK  192  A    between atoms: _447  and  _448
REMARK  193  A    between atoms: _454  and  _456
REMARK  194  A    between atoms: _456  and  _457
REMARK  195  A    between atoms: _456  and  _459
REMARK  196  A    between atoms: _459  and  _460
REMARK  197  A    between atoms: _463  and  _465
REMARK  198  A    between atoms: _465  and  _466
REMARK  199  A    between atoms: _465  and  _468
REMARK  200  A    between atoms: _468  and  _469
REMARK  201  A    between atoms: _472  and  _474
REMARK  202  A    between atoms: _474  and  _475
REMARK  203  A    between atoms: _474  and  _477
REMARK  204  A    between atoms: _477  and  _478
REMARK  205  A    between atoms: _482  and  _483
REMARK  206  A    between atoms: _488  and  _490
REMARK  207  A    between atoms: _490  and  _491
REMARK  208  A    between atoms: _490  and  _493
REMARK  209  A    between atoms: _496  and  _498
REMARK  210  A    between atoms: _498  and  _499
REMARK  211  A    between atoms: _498  and  _501
REMARK  212  A    between atoms: _501  and  _502
REMARK  213  A    between atoms: _507  and  _509
REMARK  214  A    between atoms: _509  and  _510
REMARK  215  A    between atoms: _509  and  _512
REMARK  216  A    between atoms: _515  and  _517
REMARK  217  A    between atoms: _517  and  _518
REMARK  218  A    between atoms: _517  and  _520
REMARK  219  A    between atoms: _520  and  _521
REMARK  220  A    between atoms: _524  and  _526
REMARK  221  A    between atoms: _526  and  _527
REMARK  222  A    between atoms: _529  and  _531
REMARK  223  A    between atoms: _531  and  _532
REMARK  224  A    between atoms: _531  and  _534
REMARK  225  A    between atoms: _534  and  _535
REMARK  226  A    between atoms: _535  and  _536
REMARK  227  A    between atoms: _536  and  _537
REMARK  228  A    between atoms: _546  and  _548
REMARK  229  A    between atoms: _548  and  _549
REMARK  230  A    between atoms: _548  and  _551
REMARK  231  A    between atoms: _551  and  _552
REMARK                            x       y       z     vdW  Elec       q    Type
REMARK                         _______ _______ _______ _____ _____    ______ ____
ROOT
ATOM      1  O   HOH     1      18.089  20.666  16.523  0.00  0.00    +0.000 OA
ENDROOT
TORSDOF 0
REMARK  Name = ../refined-set-2016/2qd8/2qd8_pocket.pdb
REMARK  231 active torsions:
REMARK  status: ('A' for Active; 'I' for Inactive)
REMARK    1  A    between atoms: _1  and  _3
REMARK    2  A    between atoms: _3  and  _4
REMARK    3  A    between atoms: _3  and  _6
REMARK    4  A    between atoms: _6  and  _7
REMARK    5  A    between atoms: _7  and  _8
REMARK    6  A    between atoms: _8  and  _9
REMARK    7  A    between atoms: _11  and  _15
REMARK    8  A    between atoms: _18  and  _20
REMARK    9  A    between atoms: _20  and  _21
REMARK   10  A    between atoms: _20  and  _23
REMARK   11  A    between atoms: _23  and  _24
REMARK   12  A    between atoms: _27  and  _29
REMARK   13  A    between atoms: _29  and  _30
REMARK   14  A    between atoms: _29  and  _32
REMARK   15  A    between atoms: _32  and  _33
REMARK   16  A    between atoms: _36  and  _38
REMARK   17  A    between atoms: _38  and  _39
REMARK   18  A    between atoms: _38  and  _41
REMARK   19  A    between atoms: _41  and  _42
REMARK   20  A    between atoms: _45  and  _47
REMARK   21  A    between atoms: _47  and  _48
REMARK   22  A    between atoms: _47  and  _50
REMARK   23  A    between atoms: _50  and  _51
REMARK   24  A    between atoms: _54  and  _56
REMARK   25  A    between atoms: _56  and  _57
REMARK   26  A    between atoms: _59  and  _61
REMARK   27  A    between atoms: _61  and  _62
REMARK   28  A    between atoms: _65  and  _67
REMARK   29  A    between atoms: _67  and  _68
REMARK   30  A    between atoms: _67  and  _70
REMARK   31  A    between atoms: _70  and  _71
REMARK   32  A    between atoms: _74  and  _76
REMARK   33  A    between atoms: _76  and  _77
REMARK   34  A    between atoms: _76  and  _79
REMARK   35  A    between atoms: _79  and  _80
REMARK   36  A    between atoms: _83  and  _85
REMARK   37  A    between atoms: _85  and  _86
REMARK   38  A    between atoms: _85  and  _88
REMARK   39  A    between atoms: _88  and  _89
REMARK   40  A    between atoms: _92  and  _94
REMARK   41  A    between atoms: _94  and  _95
REMARK   42  A    between atoms: _94  and  _97
REMARK   43  A    between atoms: _100  and  _102
REMARK   44  A    between atoms: _102  and  _103
REMARK   45  A    between atoms: _102  and  _105
REMARK   46  A    between atoms: _105  and  _106
REMARK   47  A    between atoms: _106  and  _107
REMARK   48  A    between atoms: _107  and  _108
REMARK   49  A    between atoms: _108  and  _109
REMARK   50  A    between atoms: _113  and  _115
REMARK   51  A    between atoms: _115  and  _116
REMARK   52  A    between atoms: _115  and  _118
REMARK   53  A    between atoms: _118  and  _119
REMARK   54  A    between atoms: _119  and  _120
REMARK   55  A    between atoms: _122  and  _124
REMARK   56  A    between atoms: _124  and  _125
REMARK   57  A    between atoms: _124  and  _127
REMARK   58  A    between atoms: _127  and  _128
REMARK   59  A    between atoms: _131  and  _133
REMARK   60  A    between atoms: _133  and  _134
REMARK   61  A    between atoms: _136  and  _138
REMARK   62  A    between atoms: _138  and  _139
REMARK   63  A    between atoms: _141  and  _143
REMARK   64  A    between atoms: _143  and  _144
REMARK   65  A    between atoms: _143  and  _146
REMARK   66  A    between atoms: _146  and  _147
REMARK   67  A    between atoms: _150  and  _152
REMARK   68  A    between atoms: _152  and  _153
REMARK   69  A    between atoms: _155  and  _157
REMARK   70  A    between atoms: _157  and  _158
REMARK   71  A    between atoms: _160  and  _162
REMARK   72  A    between atoms: _162  and  _163
REMARK   73  A    between atoms: _162  and  _165
REMARK   74  A    between atoms: _165  and  _166
REMARK   75  A    between atoms: _172  and  _174
REMARK   76  A    between atoms: _174  and  _175
REMARK   77  A    between atoms: _174  and  _177
REMARK   78  A    between atoms: _177  and  _178
REMARK   79  A    between atoms: _181  and  _183
REMARK   80  A    between atoms: _183  and  _184
REMARK   81  A    between atoms: _183  and  _186
REMARK   82  A    between atoms: _189  and  _191
REMARK   83  A    between atoms: _191  and  _192
REMARK   84  A    between atoms: _191  and  _194
REMARK   85  A    between atoms: _194  and  _195
REMARK   86  A    between atoms: _198  and  _200
REMARK   87  A    between atoms: _200  and  _201
REMARK   88  A    between atoms: _200  and  _203
REMARK   89  A    between atoms: _203  and  _204
REMARK   90  A    between atoms: _208  and  _209
REMARK   91  A    between atoms: _214  and  _216
REMARK   92  A    between atoms: _216  and  _217
REMARK   93  A    between atoms: _216  and  _219
REMARK   94  A    between atoms: _222  and  _224
REMARK   95  A    between atoms: _224  and  _225
REMARK   96  A    between atoms: _224  and  _227
REMARK   97  A    between atoms: _227  and  _228
REMARK   98  A    between atoms: _233  and  _235
REMARK   99  A    between atoms: _235  and  _236
REMARK  100  A    between atoms: _235  and  _238
REMARK  101  A    between atoms: _241  and  _243
REMARK  102  A    between atoms: _243  and  _244
REMARK  103  A    between atoms: _243  and  _246
REMARK  104  A    between atoms: _246  and  _247
REMARK  105  A    between atoms: _250  and  _252
REMARK  106  A    between atoms: _252  and  _253
REMARK  107  A    between atoms: _255  and  _257
REMARK  108  A    between atoms: _257  and  _258
REMARK  109  A    between atoms: _257  and  _260
REMARK  110  A    between atoms: _260  and  _261
REMARK  111  A    between atoms: _261  and  _262
REMARK  112  A    between atoms: _262  and  _263
REMARK  113  A    between atoms: _272  and  _274
REMARK  114  A    between atoms: _274  and  _275
REMARK  115  A    between atoms: _274  and  _277
REMARK  116  A    between atoms: _277  and  _278
REMARK  117  A    between atoms: _283  and  _285
REMARK  118  A    between atoms: _285  and  _286
REMARK  119  A    between atoms: _285  and  _288
REMARK  120  A    between atoms: _288  and  _289
REMARK  121  A    between atoms: _289  and  _290
REMARK  122  A    between atoms: _290  and  _291
REMARK  123  A    between atoms: _300  and  _302
REMARK  124  A    between atoms: _302  and  _303
REMARK  125  A    between atoms: _302  and  _305
REMARK  126  A    between atoms: _305  and  _306
REMARK  127  A    between atoms: _309  and  _311
REMARK  128  A    between atoms: _311  and  _312
REMARK  129  A    between atoms: _311  and  _314
REMARK  130  A    between atoms: _314  and  _315
REMARK  131  A    between atoms: _318  and  _320
REMARK  132  A    between atoms: _320  and  _321
REMARK  133  A    between atoms: _320  and  _323
REMARK  134  A    between atoms: _323  and  _324
REMARK  135  A    between atoms: _327  and  _329
REMARK  136  A    between atoms: _329  and  _330
REMARK  137  A    between atoms: _329  and  _332
REMARK  138  A    between atoms: _332  and  _333
REMARK  139  A    between atoms: _336  and  _338
REMARK  140  A    between atoms: _338  and  _339
REMARK  141  A    between atoms: _341  and  _343
REMARK  142  A    between atoms: _343  and  _344
REMARK  143  A    between atoms: _347  and  _349
REMARK  144  A    between atoms: _349  and  _350
REMARK  145  A    between atoms: _349  and  _352
REMARK  146  A    between atoms: _352  and  _353
REMARK  147  A    between atoms: _356  and  _358
REMARK  148  A    between atoms: _358  and  _359
REMARK  149  A    between atoms: _358  and  _361
REMARK  150  A    between atoms: _361  and  _362
REMARK  151  A    between atoms: _365  and  _367
REMARK  152  A    between atoms: _367  and  _368
REMARK  153  A    between atoms: _367  and  _370
REMARK  154  A    between atoms: _370  and  _371
REMARK  155  A    between atoms: _374  and  _376
REMARK  156  A    between atoms: _376  and  _377
REMARK  157  A    between atoms: _376  and  _379
REMARK  158  A    between atoms: _382  and  _384
REMARK  159  A    between atoms: _384  and  _385
REMARK  160  A    between atoms: _384  and  _387
REMARK  161  A    between atoms: _387  and  _388
REMARK  162  A    between atoms: _388  and  _389
REMARK  163  A    between atoms: _389  and  _390
REMARK  164  A    between atoms: _390  and  _391
REMARK  165  A    between atoms: _395  and  _397
REMARK  166  A    between atoms: _397  and  _398
REMARK  167  A    between atoms: _397  and  _400
REMARK  168  A    between atoms: _400  and  _401
REMARK  169  A    between atoms: _401  and  _402
REMARK  170  A    between atoms: _404  and  _406
REMARK  171  A    between atoms: _406  and  _407
REMARK  172  A    between atoms: _406  and  _409
REMARK  173  A    between atoms: _409  and  _410
REMARK  174  A    between atoms: _413  and  _415
REMARK  175  A    between atoms: _415  and  _416
REMARK  176  A    between atoms: _418  and  _420
REMARK  177  A    between atoms: _420  and  _421
REMARK  178  A    between atoms: _423  and  _425
REMARK  179  A    between atoms: _425  and  _426
REMARK  180  A    between atoms: _425  and  _428
REMARK  181  A    between atoms: _426  and  _427
REMARK  182  A    between atoms: _426  and  _432
REMARK  183  A    between atoms: _427  and  _592
REMARK  184  A    between atoms: _428  and  _429
REMARK  185  A    between atoms: _432  and  _434
REMARK  186  A    between atoms: _434  and  _435
REMARK  187  A    between atoms: _437  and  _439
REMARK  188  A    between atoms: _439  and  _440
REMARK  189  A    between atoms: _442  and  _444
REMARK  190  A    between atoms: _444  and  _445
REMARK  191  A    between atoms: _444  and  _447
REMARK  192  A    between atoms: _447  and  _448
REMARK  193  A    between atoms: _454  and  _456
REMARK  194  A    between atoms: _456  and  _457
REMARK  195  A    between atoms: _456  and  _459
REMARK  196  A    between atoms: _459  and  _460
REMARK  197  A    between atoms: _463  and  _465
REMARK  198  A    between atoms: _465  and  _466
REMARK  199  A    between atoms: _465  and  _468
REMARK  200  A    between atoms: _468  and  _469
REMARK  201  A    between atoms: _472  and  _474
REMARK  202  A    between atoms: _474  and  _475
REMARK  203  A    between atoms: _474  and  _477
REMARK  204  A    between atoms: _477  and  _478
REMARK  205  A    between atoms: _482  and  _483
REMARK  206  A    between atoms: _488  and  _490
REMARK  207  A    between atoms: _490  and  _491
REMARK  208  A    between atoms: _490  and  _493
REMARK  209  A    between atoms: _496  and  _498
REMARK  210  A    between atoms: _498  and  _499
REMARK  211  A    between atoms: _498  and  _501
REMARK  212  A    between atoms: _501  and  _502
REMARK  213  A    between atoms: _507  and  _509
REMARK  214  A    between atoms: _509  and  _510
REMARK  215  A    between atoms: _509  and  _512
REMARK  216  A    between atoms: _515  and  _517
REMARK  217  A    between atoms: _517  and  _518
REMARK  218  A    between atoms: _517  and  _520
REMARK  219  A    between atoms: _520  and  _521
REMARK  220  A    between atoms: _524  and  _526
REMARK  221  A    between atoms: _526  and  _527
REMARK  222  A    between atoms: _529  and  _531
REMARK  223  A    between atoms: _531  and  _532
REMARK  224  A    between atoms: _531  and  _534
REMARK  225  A    between atoms: _534  and  _535
REMARK  226  A    between atoms: _535  and  _536
REMARK  227  A    between atoms: _536  and  _537
REMARK  228  A    between atoms: _546  and  _548
REMARK  229  A    between atoms: _548  and  _549
REMARK  230  A    between atoms: _548  and  _551
REMARK  231  A    between atoms: _551  and  _552
REMARK                            x       y       z     vdW  Elec       q    Type
REMARK                         _______ _______ _______ _____ _____    ______ ____
ROOT
ATOM      1  O   HOH     1       8.751  22.152  16.622  0.00  0.00    +0.000 OA
ENDROOT
TORSDOF 0
REMARK  Name = ../refined-set-2016/2qd8/2qd8_pocket.pdb
REMARK  231 active torsions:
REMARK  status: ('A' for Active; 'I' for Inactive)
REMARK    1  A    between atoms: _1  and  _3
REMARK    2  A    between atoms: _3  and  _4
REMARK    3  A    between atoms: _3  and  _6
REMARK    4  A    between atoms: _6  and  _7
REMARK    5  A    between atoms: _7  and  _8
REMARK    6  A    between atoms: _8  and  _9
REMARK    7  A    between atoms: _11  and  _15
REMARK    8  A    between atoms: _18  and  _20
REMARK    9  A    between atoms: _20  and  _21
REMARK   10  A    between atoms: _20  and  _23
REMARK   11  A    between atoms: _23  and  _24
REMARK   12  A    between atoms: _27  and  _29
REMARK   13  A    between atoms: _29  and  _30
REMARK   14  A    between atoms: _29  and  _32
REMARK   15  A    between atoms: _32  and  _33
REMARK   16  A    between atoms: _36  and  _38
REMARK   17  A    between atoms: _38  and  _39
REMARK   18  A    between atoms: _38  and  _41
REMARK   19  A    between atoms: _41  and  _42
REMARK   20  A    between atoms: _45  and  _47
REMARK   21  A    between atoms: _47  and  _48
REMARK   22  A    between atoms: _47  and  _50
REMARK   23  A    between atoms: _50  and  _51
REMARK   24  A    between atoms: _54  and  _56
REMARK   25  A    between atoms: _56  and  _57
REMARK   26  A    between atoms: _59  and  _61
REMARK   27  A    between atoms: _61  and  _62
REMARK   28  A    between atoms: _65  and  _67
REMARK   29  A    between atoms: _67  and  _68
REMARK   30  A    between atoms: _67  and  _70
REMARK   31  A    between atoms: _70  and  _71
REMARK   32  A    between atoms: _74  and  _76
REMARK   33  A    between atoms: _76  and  _77
REMARK   34  A    between atoms: _76  and  _79
REMARK   35  A    between atoms: _79  and  _80
REMARK   36  A    between atoms: _83  and  _85
REMARK   37  A    between atoms: _85  and  _86
REMARK   38  A    between atoms: _85  and  _88
REMARK   39  A    between atoms: _88  and  _89
REMARK   40  A    between atoms: _92  and  _94
REMARK   41  A    between atoms: _94  and  _95
REMARK   42  A    between atoms: _94  and  _97
REMARK   43  A    between atoms: _100  and  _102
REMARK   44  A    between atoms: _102  and  _103
REMARK   45  A    between atoms: _102  and  _105
REMARK   46  A    between atoms: _105  and  _106
REMARK   47  A    between atoms: _106  and  _107
REMARK   48  A    between atoms: _107  and  _108
REMARK   49  A    between atoms: _108  and  _109
REMARK   50  A    between atoms: _113  and  _115
REMARK   51  A    between atoms: _115  and  _116
REMARK   52  A    between atoms: _115  and  _118
REMARK   53  A    between atoms: _118  and  _119
REMARK   54  A    between atoms: _119  and  _120
REMARK   55  A    between atoms: _122  and  _124
REMARK   56  A    between atoms: _124  and  _125
REMARK   57  A    between atoms: _124  and  _127
REMARK   58  A    between atoms: _127  and  _128
REMARK   59  A    between atoms: _131  and  _133
REMARK   60  A    between atoms: _133  and  _134
REMARK   61  A    between atoms: _136  and  _138
REMARK   62  A    between atoms: _138  and  _139
REMARK   63  A    between atoms: _141  and  _143
REMARK   64  A    between atoms: _143  and  _144
REMARK   65  A    between atoms: _143  and  _146
REMARK   66  A    between atoms: _146  and  _147
REMARK   67  A    between atoms: _150  and  _152
REMARK   68  A    between atoms: _152  and  _153
REMARK   69  A    between atoms: _155  and  _157
REMARK   70  A    between atoms: _157  and  _158
REMARK   71  A    between atoms: _160  and  _162
REMARK   72  A    between atoms: _162  and  _163
REMARK   73  A    between atoms: _162  and  _165
REMARK   74  A    between atoms: _165  and  _166
REMARK   75  A    between atoms: _172  and  _174
REMARK   76  A    between atoms: _174  and  _175
REMARK   77  A    between atoms: _174  and  _177
REMARK   78  A    between atoms: _177  and  _178
REMARK   79  A    between atoms: _181  and  _183
REMARK   80  A    between atoms: _183  and  _184
REMARK   81  A    between atoms: _183  and  _186
REMARK   82  A    between atoms: _189  and  _191
REMARK   83  A    between atoms: _191  and  _192
REMARK   84  A    between atoms: _191  and  _194
REMARK   85  A    between atoms: _194  and  _195
REMARK   86  A    between atoms: _198  and  _200
REMARK   87  A    between atoms: _200  and  _201
REMARK   88  A    between atoms: _200  and  _203
REMARK   89  A    between atoms: _203  and  _204
REMARK   90  A    between atoms: _208  and  _209
REMARK   91  A    between atoms: _214  and  _216
REMARK   92  A    between atoms: _216  and  _217
REMARK   93  A    between atoms: _216  and  _219
REMARK   94  A    between atoms: _222  and  _224
REMARK   95  A    between atoms: _224  and  _225
REMARK   96  A    between atoms: _224  and  _227
REMARK   97  A    between atoms: _227  and  _228
REMARK   98  A    between atoms: _233  and  _235
REMARK   99  A    between atoms: _235  and  _236
REMARK  100  A    between atoms: _235  and  _238
REMARK  101  A    between atoms: _241  and  _243
REMARK  102  A    between atoms: _243  and  _244
REMARK  103  A    between atoms: _243  and  _246
REMARK  104  A    between atoms: _246  and  _247
REMARK  105  A    between atoms: _250  and  _252
REMARK  106  A    between atoms: _252  and  _253
REMARK  107  A    between atoms: _255  and  _257
REMARK  108  A    between atoms: _257  and  _258
REMARK  109  A    between atoms: _257  and  _260
REMARK  110  A    between atoms: _260  and  _261
REMARK  111  A    between atoms: _261  and  _262
REMARK  112  A    between atoms: _262  and  _263
REMARK  113  A    between atoms: _272  and  _274
REMARK  114  A    between atoms: _274  and  _275
REMARK  115  A    between atoms: _274  and  _277
REMARK  116  A    between atoms: _277  and  _278
REMARK  117  A    between atoms: _283  and  _285
REMARK  118  A    between atoms: _285  and  _286
REMARK  119  A    between atoms: _285  and  _288
REMARK  120  A    between atoms: _288  and  _289
REMARK  121  A    between atoms: _289  and  _290
REMARK  122  A    between atoms: _290  and  _291
REMARK  123  A    between atoms: _300  and  _302
REMARK  124  A    between atoms: _302  and  _303
REMARK  125  A    between atoms: _302  and  _305
REMARK  126  A    between atoms: _305  and  _306
REMARK  127  A    between atoms: _309  and  _311
REMARK  128  A    between atoms: _311  and  _312
REMARK  129  A    between atoms: _311  and  _314
REMARK  130  A    between atoms: _314  and  _315
REMARK  131  A    between atoms: _318  and  _320
REMARK  132  A    between atoms: _320  and  _321
REMARK  133  A    between atoms: _320  and  _323
REMARK  134  A    between atoms: _323  and  _324
REMARK  135  A    between atoms: _327  and  _329
REMARK  136  A    between atoms: _329  and  _330
REMARK  137  A    between atoms: _329  and  _332
REMARK  138  A    between atoms: _332  and  _333
REMARK  139  A    between atoms: _336  and  _338
REMARK  140  A    between atoms: _338  and  _339
REMARK  141  A    between atoms: _341  and  _343
REMARK  142  A    between atoms: _343  and  _344
REMARK  143  A    between atoms: _347  and  _349
REMARK  144  A    between atoms: _349  and  _350
REMARK  145  A    between atoms: _349  and  _352
REMARK  146  A    between atoms: _352  and  _353
REMARK  147  A    between atoms: _356  and  _358
REMARK  148  A    between atoms: _358  and  _359
REMARK  149  A    between atoms: _358  and  _361
REMARK  150  A    between atoms: _361  and  _362
REMARK  151  A    between atoms: _365  and  _367
REMARK  152  A    between atoms: _367  and  _368
REMARK  153  A    between atoms: _367  and  _370
REMARK  154  A    between atoms: _370  and  _371
REMARK  155  A    between atoms: _374  and  _376
REMARK  156  A    between atoms: _376  and  _377
REMARK  157  A    between atoms: _376  and  _379
REMARK  158  A    between atoms: _382  and  _384
REMARK  159  A    between atoms: _384  and  _385
REMARK  160  A    between atoms: _384  and  _387
REMARK  161  A    between atoms: _387  and  _388
REMARK  162  A    between atoms: _388  and  _389
REMARK  163  A    between atoms: _389  and  _390
REMARK  164  A    between atoms: _390  and  _391
REMARK  165  A    between atoms: _395  and  _397
REMARK  166  A    between atoms: _397  and  _398
REMARK  167  A    between atoms: _397  and  _400
REMARK  168  A    between atoms: _400  and  _401
REMARK  169  A    between atoms: _401  and  _402
REMARK  170  A    between atoms: _404  and  _406
REMARK  171  A    between atoms: _406  and  _407
REMARK  172  A    between atoms: _406  and  _409
REMARK  173  A    between atoms: _409  and  _410
REMARK  174  A    between atoms: _413  and  _415
REMARK  175  A    between atoms: _415  and  _416
REMARK  176  A    between atoms: _418  and  _420
REMARK  177  A    between atoms: _420  and  _421
REMARK  178  A    between atoms: _423  and  _425
REMARK  179  A    between atoms: _425  and  _426
REMARK  180  A    between atoms: _425  and  _428
REMARK  181  A    between atoms: _426  and  _427
REMARK  182  A    between atoms: _426  and  _432
REMARK  183  A    between atoms: _427  and  _592
REMARK  184  A    between atoms: _428  and  _429
REMARK  185  A    between atoms: _432  and  _434
REMARK  186  A    between atoms: _434  and  _435
REMARK  187  A    between atoms: _437  and  _439
REMARK  188  A    between atoms: _439  and  _440
REMARK  189  A    between atoms: _442  and  _444
REMARK  190  A    between atoms: _444  and  _445
REMARK  191  A    between atoms: _444  and  _447
REMARK  192  A    between atoms: _447  and  _448
REMARK  193  A    between atoms: _454  and  _456
REMARK  194  A    between atoms: _456  and  _457
REMARK  195  A    between atoms: _456  and  _459
REMARK  196  A    between atoms: _459  and  _460
REMARK  197  A    between atoms: _463  and  _465
REMARK  198  A    between atoms: _465  and  _466
REMARK  199  A    between atoms: _465  and  _468
REMARK  200  A    between atoms: _468  and  _469
REMARK  201  A    between atoms: _472  and  _474
REMARK  202  A    between atoms: _474  and  _475
REMARK  203  A    between atoms: _474  and  _477
REMARK  204  A    between atoms: _477  and  _478
REMARK  205  A    between atoms: _482  and  _483
REMARK  206  A    between atoms: _488  and  _490
REMARK  207  A    between atoms: _490  and  _491
REMARK  208  A    between atoms: _490  and  _493
REMARK  209  A    between atoms: _496  and  _498
REMARK  210  A    between atoms: _498  and  _499
REMARK  211  A    between atoms: _498  and  _501
REMARK  212  A    between atoms: _501  and  _502
REMARK  213  A    between atoms: _507  and  _509
REMARK  214  A    between atoms: _509  and  _510
REMARK  215  A    between atoms: _509  and  _512
REMARK  216  A    between atoms: _515  and  _517
REMARK  217  A    between atoms: _517  and  _518
REMARK  218  A    between atoms: _517  and  _520
REMARK  219  A    between atoms: _520  and  _521
REMARK  220  A    between atoms: _524  and  _526
REMARK  221  A    between atoms: _526  and  _527
REMARK  222  A    between atoms: _529  and  _531
REMARK  223  A    between atoms: _531  and  _532
REMARK  224  A    between atoms: _531  and  _534
REMARK  225  A    between atoms: _534  and  _535
REMARK  226  A    between atoms: _535  and  _536
REMARK  227  A    between atoms: _536  and  _537
REMARK  228  A    between atoms: _546  and  _548
REMARK  229  A    between atoms: _548  and  _549
REMARK  230  A    between atoms: _548  and  _551
REMARK  231  A    between atoms: _551  and  _552
REMARK                            x       y       z     vdW  Elec       q    Type
REMARK                         _______ _______ _______ _____ _____    ______ ____
ROOT
ATOM      1  O   HOH     1       9.291  16.130  26.624  0.00  0.00    +0.000 OA
ENDROOT
TORSDOF 0
REMARK  Name = ../refined-set-2016/2qd8/2qd8_pocket.pdb
REMARK  231 active torsions:
REMARK  status: ('A' for Active; 'I' for Inactive)
REMARK    1  A    between atoms: _1  and  _3
REMARK    2  A    between atoms: _3  and  _4
REMARK    3  A    between atoms: _3  and  _6
REMARK    4  A    between atoms: _6  and  _7
REMARK    5  A    between atoms: _7  and  _8
REMARK    6  A    between atoms: _8  and  _9
REMARK    7  A    between atoms: _11  and  _15
REMARK    8  A    between atoms: _18  and  _20
REMARK    9  A    between atoms: _20  and  _21
REMARK   10  A    between atoms: _20  and  _23
REMARK   11  A    between atoms: _23  and  _24
REMARK   12  A    between atoms: _27  and  _29
REMARK   13  A    between atoms: _29  and  _30
REMARK   14  A    between atoms: _29  and  _32
REMARK   15  A    between atoms: _32  and  _33
REMARK   16  A    between atoms: _36  and  _38
REMARK   17  A    between atoms: _38  and  _39
REMARK   18  A    between atoms: _38  and  _41
REMARK   19  A    between atoms: _41  and  _42
REMARK   20  A    between atoms: _45  and  _47
REMARK   21  A    between atoms: _47  and  _48
REMARK   22  A    between atoms: _47  and  _50
REMARK   23  A    between atoms: _50  and  _51
REMARK   24  A    between atoms: _54  and  _56
REMARK   25  A    between atoms: _56  and  _57
REMARK   26  A    between atoms: _59  and  _61
REMARK   27  A    between atoms: _61  and  _62
REMARK   28  A    between atoms: _65  and  _67
REMARK   29  A    between atoms: _67  and  _68
REMARK   30  A    between atoms: _67  and  _70
REMARK   31  A    between atoms: _70  and  _71
REMARK   32  A    between atoms: _74  and  _76
REMARK   33  A    between atoms: _76  and  _77
REMARK   34  A    between atoms: _76  and  _79
REMARK   35  A    between atoms: _79  and  _80
REMARK   36  A    between atoms: _83  and  _85
REMARK   37  A    between atoms: _85  and  _86
REMARK   38  A    between atoms: _85  and  _88
REMARK   39  A    between atoms: _88  and  _89
REMARK   40  A    between atoms: _92  and  _94
REMARK   41  A    between atoms: _94  and  _95
REMARK   42  A    between atoms: _94  and  _97
REMARK   43  A    between atoms: _100  and  _102
REMARK   44  A    between atoms: _102  and  _103
REMARK   45  A    between atoms: _102  and  _105
REMARK   46  A    between atoms: _105  and  _106
REMARK   47  A    between atoms: _106  and  _107
REMARK   48  A    between atoms: _107  and  _108
REMARK   49  A    between atoms: _108  and  _109
REMARK   50  A    between atoms: _113  and  _115
REMARK   51  A    between atoms: _115  and  _116
REMARK   52  A    between atoms: _115  and  _118
REMARK   53  A    between atoms: _118  and  _119
REMARK   54  A    between atoms: _119  and  _120
REMARK   55  A    between atoms: _122  and  _124
REMARK   56  A    between atoms: _124  and  _125
REMARK   57  A    between atoms: _124  and  _127
REMARK   58  A    between atoms: _127  and  _128
REMARK   59  A    between atoms: _131  and  _133
REMARK   60  A    between atoms: _133  and  _134
REMARK   61  A    between atoms: _136  and  _138
REMARK   62  A    between atoms: _138  and  _139
REMARK   63  A    between atoms: _141  and  _143
REMARK   64  A    between atoms: _143  and  _144
REMARK   65  A    between atoms: _143  and  _146
REMARK   66  A    between atoms: _146  and  _147
REMARK   67  A    between atoms: _150  and  _152
REMARK   68  A    between atoms: _152  and  _153
REMARK   69  A    between atoms: _155  and  _157
REMARK   70  A    between atoms: _157  and  _158
REMARK   71  A    between atoms: _160  and  _162
REMARK   72  A    between atoms: _162  and  _163
REMARK   73  A    between atoms: _162  and  _165
REMARK   74  A    between atoms: _165  and  _166
REMARK   75  A    between atoms: _172  and  _174
REMARK   76  A    between atoms: _174  and  _175
REMARK   77  A    between atoms: _174  and  _177
REMARK   78  A    between atoms: _177  and  _178
REMARK   79  A    between atoms: _181  and  _183
REMARK   80  A    between atoms: _183  and  _184
REMARK   81  A    between atoms: _183  and  _186
REMARK   82  A    between atoms: _189  and  _191
REMARK   83  A    between atoms: _191  and  _192
REMARK   84  A    between atoms: _191  and  _194
REMARK   85  A    between atoms: _194  and  _195
REMARK   86  A    between atoms: _198  and  _200
REMARK   87  A    between atoms: _200  and  _201
REMARK   88  A    between atoms: _200  and  _203
REMARK   89  A    between atoms: _203  and  _204
REMARK   90  A    between atoms: _208  and  _209
REMARK   91  A    between atoms: _214  and  _216
REMARK   92  A    between atoms: _216  and  _217
REMARK   93  A    between atoms: _216  and  _219
REMARK   94  A    between atoms: _222  and  _224
REMARK   95  A    between atoms: _224  and  _225
REMARK   96  A    between atoms: _224  and  _227
REMARK   97  A    between atoms: _227  and  _228
REMARK   98  A    between atoms: _233  and  _235
REMARK   99  A    between atoms: _235  and  _236
REMARK  100  A    between atoms: _235  and  _238
REMARK  101  A    between atoms: _241  and  _243
REMARK  102  A    between atoms: _243  and  _244
REMARK  103  A    between atoms: _243  and  _246
REMARK  104  A    between atoms: _246  and  _247
REMARK  105  A    between atoms: _250  and  _252
REMARK  106  A    between atoms: _252  and  _253
REMARK  107  A    between atoms: _255  and  _257
REMARK  108  A    between atoms: _257  and  _258
REMARK  109  A    between atoms: _257  and  _260
REMARK  110  A    between atoms: _260  and  _261
REMARK  111  A    between atoms: _261  and  _262
REMARK  112  A    between atoms: _262  and  _263
REMARK  113  A    between atoms: _272  and  _274
REMARK  114  A    between atoms: _274  and  _275
REMARK  115  A    between atoms: _274  and  _277
REMARK  116  A    between atoms: _277  and  _278
REMARK  117  A    between atoms: _283  and  _285
REMARK  118  A    between atoms: _285  and  _286
REMARK  119  A    between atoms: _285  and  _288
REMARK  120  A    between atoms: _288  and  _289
REMARK  121  A    between atoms: _289  and  _290
REMARK  122  A    between atoms: _290  and  _291
REMARK  123  A    between atoms: _300  and  _302
REMARK  124  A    between atoms: _302  and  _303
REMARK  125  A    between atoms: _302  and  _305
REMARK  126  A    between atoms: _305  and  _306
REMARK  127  A    between atoms: _309  and  _311
REMARK  128  A    between atoms: _311  and  _312
REMARK  129  A    between atoms: _311  and  _314
REMARK  130  A    between atoms: _314  and  _315
REMARK  131  A    between atoms: _318  and  _320
REMARK  132  A    between atoms: _320  and  _321
REMARK  133  A    between atoms: _320  and  _323
REMARK  134  A    between atoms: _323  and  _324
REMARK  135  A    between atoms: _327  and  _329
REMARK  136  A    between atoms: _329  and  _330
REMARK  137  A    between atoms: _329  and  _332
REMARK  138  A    between atoms: _332  and  _333
REMARK  139  A    between atoms: _336  and  _338
REMARK  140  A    between atoms: _338  and  _339
REMARK  141  A    between atoms: _341  and  _343
REMARK  142  A    between atoms: _343  and  _344
REMARK  143  A    between atoms: _347  and  _349
REMARK  144  A    between atoms: _349  and  _350
REMARK  145  A    between atoms: _349  and  _352
REMARK  146  A    between atoms: _352  and  _353
REMARK  147  A    between atoms: _356  and  _358
REMARK  148  A    between atoms: _358  and  _359
REMARK  149  A    between atoms: _358  and  _361
REMARK  150  A    between atoms: _361  and  _362
REMARK  151  A    between atoms: _365  and  _367
REMARK  152  A    between atoms: _367  and  _368
REMARK  153  A    between atoms: _367  and  _370
REMARK  154  A    between atoms: _370  and  _371
REMARK  155  A    between atoms: _374  and  _376
REMARK  156  A    between atoms: _376  and  _377
REMARK  157  A    between atoms: _376  and  _379
REMARK  158  A    between atoms: _382  and  _384
REMARK  159  A    between atoms: _384  and  _385
REMARK  160  A    between atoms: _384  and  _387
REMARK  161  A    between atoms: _387  and  _388
REMARK  162  A    between atoms: _388  and  _389
REMARK  163  A    between atoms: _389  and  _390
REMARK  164  A    between atoms: _390  and  _391
REMARK  165  A    between atoms: _395  and  _397
REMARK  166  A    between atoms: _397  and  _398
REMARK  167  A    between atoms: _397  and  _400
REMARK  168  A    between atoms: _400  and  _401
REMARK  169  A    between atoms: _401  and  _402
REMARK  170  A    between atoms: _404  and  _406
REMARK  171  A    between atoms: _406  and  _407
REMARK  172  A    between atoms: _406  and  _409
REMARK  173  A    between atoms: _409  and  _410
REMARK  174  A    between atoms: _413  and  _415
REMARK  175  A    between atoms: _415  and  _416
REMARK  176  A    between atoms: _418  and  _420
REMARK  177  A    between atoms: _420  and  _421
REMARK  178  A    between atoms: _423  and  _425
REMARK  179  A    between atoms: _425  and  _426
REMARK  180  A    between atoms: _425  and  _428
REMARK  181  A    between atoms: _426  and  _427
REMARK  182  A    between atoms: _426  and  _432
REMARK  183  A    between atoms: _427  and  _592
REMARK  184  A    between atoms: _428  and  _429
REMARK  185  A    between atoms: _432  and  _434
REMARK  186  A    between atoms: _434  and  _435
REMARK  187  A    between atoms: _437  and  _439
REMARK  188  A    between atoms: _439  and  _440
REMARK  189  A    between atoms: _442  and  _444
REMARK  190  A    between atoms: _444  and  _445
REMARK  191  A    between atoms: _444  and  _447
REMARK  192  A    between atoms: _447  and  _448
REMARK  193  A    between atoms: _454  and  _456
REMARK  194  A    between atoms: _456  and  _457
REMARK  195  A    between atoms: _456  and  _459
REMARK  196  A    between atoms: _459  and  _460
REMARK  197  A    between atoms: _463  and  _465
REMARK  198  A    between atoms: _465  and  _466
REMARK  199  A    between atoms: _465  and  _468
REMARK  200  A    between atoms: _468  and  _469
REMARK  201  A    between atoms: _472  and  _474
REMARK  202  A    between atoms: _474  and  _475
REMARK  203  A    between atoms: _474  and  _477
REMARK  204  A    between atoms: _477  and  _478
REMARK  205  A    between atoms: _482  and  _483
REMARK  206  A    between atoms: _488  and  _490
REMARK  207  A    between atoms: _490  and  _491
REMARK  208  A    between atoms: _490  and  _493
REMARK  209  A    between atoms: _496  and  _498
REMARK  210  A    between atoms: _498  and  _499
REMARK  211  A    between atoms: _498  and  _501
REMARK  212  A    between atoms: _501  and  _502
REMARK  213  A    between atoms: _507  and  _509
REMARK  214  A    between atoms: _509  and  _510
REMARK  215  A    between atoms: _509  and  _512
REMARK  216  A    between atoms: _515  and  _517
REMARK  217  A    between atoms: _517  and  _518
REMARK  218  A    between atoms: _517  and  _520
REMARK  219  A    between atoms: _520  and  _521
REMARK  220  A    between atoms: _524  and  _526
REMARK  221  A    between atoms: _526  and  _527
REMARK  222  A    between atoms: _529  and  _531
REMARK  223  A    between atoms: _531  and  _532
REMARK  224  A    between atoms: _531  and  _534
REMARK  225  A    between atoms: _534  and  _535
REMARK  226  A    between atoms: _535  and  _536
REMARK  227  A    between atoms: _536  and  _537
REMARK  228  A    between atoms: _546  and  _548
REMARK  229  A    between atoms: _548  and  _549
REMARK  230  A    between atoms: _548  and  _551
REMARK  231  A    between atoms: _551  and  _552
REMARK                            x       y       z     vdW  Elec       q    Type
REMARK                         _______ _______ _______ _____ _____    ______ ____
ROOT
ATOM      1  O   HOH     1      20.091  28.820  21.286  0.00  0.00    +0.000 OA
ENDROOT
TORSDOF 0
REMARK  Name = ../refined-set-2016/2qd8/2qd8_pocket.pdb
REMARK  231 active torsions:
REMARK  status: ('A' for Active; 'I' for Inactive)
REMARK    1  A    between atoms: _1  and  _3
REMARK    2  A    between atoms: _3  and  _4
REMARK    3  A    between atoms: _3  and  _6
REMARK    4  A    between atoms: _6  and  _7
REMARK    5  A    between atoms: _7  and  _8
REMARK    6  A    between atoms: _8  and  _9
REMARK    7  A    between atoms: _11  and  _15
REMARK    8  A    between atoms: _18  and  _20
REMARK    9  A    between atoms: _20  and  _21
REMARK   10  A    between atoms: _20  and  _23
REMARK   11  A    between atoms: _23  and  _24
REMARK   12  A    between atoms: _27  and  _29
REMARK   13  A    between atoms: _29  and  _30
REMARK   14  A    between atoms: _29  and  _32
REMARK   15  A    between atoms: _32  and  _33
REMARK   16  A    between atoms: _36  and  _38
REMARK   17  A    between atoms: _38  and  _39
REMARK   18  A    between atoms: _38  and  _41
REMARK   19  A    between atoms: _41  and  _42
REMARK   20  A    between atoms: _45  and  _47
REMARK   21  A    between atoms: _47  and  _48
REMARK   22  A    between atoms: _47  and  _50
REMARK   23  A    between atoms: _50  and  _51
REMARK   24  A    between atoms: _54  and  _56
REMARK   25  A    between atoms: _56  and  _57
REMARK   26  A    between atoms: _59  and  _61
REMARK   27  A    between atoms: _61  and  _62
REMARK   28  A    between atoms: _65  and  _67
REMARK   29  A    between atoms: _67  and  _68
REMARK   30  A    between atoms: _67  and  _70
REMARK   31  A    between atoms: _70  and  _71
REMARK   32  A    between atoms: _74  and  _76
REMARK   33  A    between atoms: _76  and  _77
REMARK   34  A    between atoms: _76  and  _79
REMARK   35  A    between atoms: _79  and  _80
REMARK   36  A    between atoms: _83  and  _85
REMARK   37  A    between atoms: _85  and  _86
REMARK   38  A    between atoms: _85  and  _88
REMARK   39  A    between atoms: _88  and  _89
REMARK   40  A    between atoms: _92  and  _94
REMARK   41  A    between atoms: _94  and  _95
REMARK   42  A    between atoms: _94  and  _97
REMARK   43  A    between atoms: _100  and  _102
REMARK   44  A    between atoms: _102  and  _103
REMARK   45  A    between atoms: _102  and  _105
REMARK   46  A    between atoms: _105  and  _106
REMARK   47  A    between atoms: _106  and  _107
REMARK   48  A    between atoms: _107  and  _108
REMARK   49  A    between atoms: _108  and  _109
REMARK   50  A    between atoms: _113  and  _115
REMARK   51  A    between atoms: _115  and  _116
REMARK   52  A    between atoms: _115  and  _118
REMARK   53  A    between atoms: _118  and  _119
REMARK   54  A    between atoms: _119  and  _120
REMARK   55  A    between atoms: _122  and  _124
REMARK   56  A    between atoms: _124  and  _125
REMARK   57  A    between atoms: _124  and  _127
REMARK   58  A    between atoms: _127  and  _128
REMARK   59  A    between atoms: _131  and  _133
REMARK   60  A    between atoms: _133  and  _134
REMARK   61  A    between atoms: _136  and  _138
REMARK   62  A    between atoms: _138  and  _139
REMARK   63  A    between atoms: _141  and  _143
REMARK   64  A    between atoms: _143  and  _144
REMARK   65  A    between atoms: _143  and  _146
REMARK   66  A    between atoms: _146  and  _147
REMARK   67  A    between atoms: _150  and  _152
REMARK   68  A    between atoms: _152  and  _153
REMARK   69  A    between atoms: _155  and  _157
REMARK   70  A    between atoms: _157  and  _158
REMARK   71  A    between atoms: _160  and  _162
REMARK   72  A    between atoms: _162  and  _163
REMARK   73  A    between atoms: _162  and  _165
REMARK   74  A    between atoms: _165  and  _166
REMARK   75  A    between atoms: _172  and  _174
REMARK   76  A    between atoms: _174  and  _175
REMARK   77  A    between atoms: _174  and  _177
REMARK   78  A    between atoms: _177  and  _178
REMARK   79  A    between atoms: _181  and  _183
REMARK   80  A    between atoms: _183  and  _184
REMARK   81  A    between atoms: _183  and  _186
REMARK   82  A    between atoms: _189  and  _191
REMARK   83  A    between atoms: _191  and  _192
REMARK   84  A    between atoms: _191  and  _194
REMARK   85  A    between atoms: _194  and  _195
REMARK   86  A    between atoms: _198  and  _200
REMARK   87  A    between atoms: _200  and  _201
REMARK   88  A    between atoms: _200  and  _203
REMARK   89  A    between atoms: _203  and  _204
REMARK   90  A    between atoms: _208  and  _209
REMARK   91  A    between atoms: _214  and  _216
REMARK   92  A    between atoms: _216  and  _217
REMARK   93  A    between atoms: _216  and  _219
REMARK   94  A    between atoms: _222  and  _224
REMARK   95  A    between atoms: _224  and  _225
REMARK   96  A    between atoms: _224  and  _227
REMARK   97  A    between atoms: _227  and  _228
REMARK   98  A    between atoms: _233  and  _235
REMARK   99  A    between atoms: _235  and  _236
REMARK  100  A    between atoms: _235  and  _238
REMARK  101  A    between atoms: _241  and  _243
REMARK  102  A    between atoms: _243  and  _244
REMARK  103  A    between atoms: _243  and  _246
REMARK  104  A    between atoms: _246  and  _247
REMARK  105  A    between atoms: _250  and  _252
REMARK  106  A    between atoms: _252  and  _253
REMARK  107  A    between atoms: _255  and  _257
REMARK  108  A    between atoms: _257  and  _258
REMARK  109  A    between atoms: _257  and  _260
REMARK  110  A    between atoms: _260  and  _261
REMARK  111  A    between atoms: _261  and  _262
REMARK  112  A    between atoms: _262  and  _263
REMARK  113  A    between atoms: _272  and  _274
REMARK  114  A    between atoms: _274  and  _275
REMARK  115  A    between atoms: _274  and  _277
REMARK  116  A    between atoms: _277  and  _278
REMARK  117  A    between atoms: _283  and  _285
REMARK  118  A    between atoms: _285  and  _286
REMARK  119  A    between atoms: _285  and  _288
REMARK  120  A    between atoms: _288  and  _289
REMARK  121  A    between atoms: _289  and  _290
REMARK  122  A    between atoms: _290  and  _291
REMARK  123  A    between atoms: _300  and  _302
REMARK  124  A    between atoms: _302  and  _303
REMARK  125  A    between atoms: _302  and  _305
REMARK  126  A    between atoms: _305  and  _306
REMARK  127  A    between atoms: _309  and  _311
REMARK  128  A    between atoms: _311  and  _312
REMARK  129  A    between atoms: _311  and  _314
REMARK  130  A    between atoms: _314  and  _315
REMARK  131  A    between atoms: _318  and  _320
REMARK  132  A    between atoms: _320  and  _321
REMARK  133  A    between atoms: _320  and  _323
REMARK  134  A    between atoms: _323  and  _324
REMARK  135  A    between atoms: _327  and  _329
REMARK  136  A    between atoms: _329  and  _330
REMARK  137  A    between atoms: _329  and  _332
REMARK  138  A    between atoms: _332  and  _333
REMARK  139  A    between atoms: _336  and  _338
REMARK  140  A    between atoms: _338  and  _339
REMARK  141  A    between atoms: _341  and  _343
REMARK  142  A    between atoms: _343  and  _344
REMARK  143  A    between atoms: _347  and  _349
REMARK  144  A    between atoms: _349  and  _350
REMARK  145  A    between atoms: _349  and  _352
REMARK  146  A    between atoms: _352  and  _353
REMARK  147  A    between atoms: _356  and  _358
REMARK  148  A    between atoms: _358  and  _359
REMARK  149  A    between atoms: _358  and  _361
REMARK  150  A    between atoms: _361  and  _362
REMARK  151  A    between atoms: _365  and  _367
REMARK  152  A    between atoms: _367  and  _368
REMARK  153  A    between atoms: _367  and  _370
REMARK  154  A    between atoms: _370  and  _371
REMARK  155  A    between atoms: _374  and  _376
REMARK  156  A    between atoms: _376  and  _377
REMARK  157  A    between atoms: _376  and  _379
REMARK  158  A    between atoms: _382  and  _384
REMARK  159  A    between atoms: _384  and  _385
REMARK  160  A    between atoms: _384  and  _387
REMARK  161  A    between atoms: _387  and  _388
REMARK  162  A    between atoms: _388  and  _389
REMARK  163  A    between atoms: _389  and  _390
REMARK  164  A    between atoms: _390  and  _391
REMARK  165  A    between atoms: _395  and  _397
REMARK  166  A    between atoms: _397  and  _398
REMARK  167  A    between atoms: _397  and  _400
REMARK  168  A    between atoms: _400  and  _401
REMARK  169  A    between atoms: _401  and  _402
REMARK  170  A    between atoms: _404  and  _406
REMARK  171  A    between atoms: _406  and  _407
REMARK  172  A    between atoms: _406  and  _409
REMARK  173  A    between atoms: _409  and  _410
REMARK  174  A    between atoms: _413  and  _415
REMARK  175  A    between atoms: _415  and  _416
REMARK  176  A    between atoms: _418  and  _420
REMARK  177  A    between atoms: _420  and  _421
REMARK  178  A    between atoms: _423  and  _425
REMARK  179  A    between atoms: _425  and  _426
REMARK  180  A    between atoms: _425  and  _428
REMARK  181  A    between atoms: _426  and  _427
REMARK  182  A    between atoms: _426  and  _432
REMARK  183  A    between atoms: _427  and  _592
REMARK  184  A    between atoms: _428  and  _429
REMARK  185  A    between atoms: _432  and  _434
REMARK  186  A    between atoms: _434  and  _435
REMARK  187  A    between atoms: _437  and  _439
REMARK  188  A    between atoms: _439  and  _440
REMARK  189  A    between atoms: _442  and  _444
REMARK  190  A    between atoms: _444  and  _445
REMARK  191  A    between atoms: _444  and  _447
REMARK  192  A    between atoms: _447  and  _448
REMARK  193  A    between atoms: _454  and  _456
REMARK  194  A    between atoms: _456  and  _457
REMARK  195  A    between atoms: _456  and  _459
REMARK  196  A    between atoms: _459  and  _460
REMARK  197  A    between atoms: _463  and  _465
REMARK  198  A    between atoms: _465  and  _466
REMARK  199  A    between atoms: _465  and  _468
REMARK  200  A    between atoms: _468  and  _469
REMARK  201  A    between atoms: _472  and  _474
REMARK  202  A    between atoms: _474  and  _475
REMARK  203  A    between atoms: _474  and  _477
REMARK  204  A    between atoms: _477  and  _478
REMARK  205  A    between atoms: _482  and  _483
REMARK  206  A    between atoms: _488  and  _490
REMARK  207  A    between atoms: _490  and  _491
REMARK  208  A    between atoms: _490  and  _493
REMARK  209  A    between atoms: _496  and  _498
REMARK  210  A    between atoms: _498  and  _499
REMARK  211  A    between atoms: _498  and  _501
REMARK  212  A    between atoms: _501  and  _502
REMARK  213  A    between atoms: _507  and  _509
REMARK  214  A    between atoms: _509  and  _510
REMARK  215  A    between atoms: _509  and  _512
REMARK  216  A    between atoms: _515  and  _517
REMARK  217  A    between atoms: _517  and  _518
REMARK  218  A    between atoms: _517  and  _520
REMARK  219  A    between atoms: _520  and  _521
REMARK  220  A    between atoms: _524  and  _526
REMARK  221  A    between atoms: _526  and  _527
REMARK  222  A    between atoms: _529  and  _531
REMARK  223  A    between atoms: _531  and  _532
REMARK  224  A    between atoms: _531  and  _534
REMARK  225  A    between atoms: _534  and  _535
REMARK  226  A    between atoms: _535  and  _536
REMARK  227  A    between atoms: _536  and  _537
REMARK  228  A    between atoms: _546  and  _548
REMARK  229  A    between atoms: _548  and  _549
REMARK  230  A    between atoms: _548  and  _551
REMARK  231  A    between atoms: _551  and  _552
REMARK                            x       y       z     vdW  Elec       q    Type
REMARK                         _______ _______ _______ _____ _____    ______ ____
ROOT
ATOM      1  O   HOH     1      11.006  14.927  16.510  0.00  0.00    +0.000 OA
ENDROOT
TORSDOF 0
REMARK  Name = ../refined-set-2016/2qd8/2qd8_pocket.pdb
REMARK  231 active torsions:
REMARK  status: ('A' for Active; 'I' for Inactive)
REMARK    1  A    between atoms: _1  and  _3
REMARK    2  A    between atoms: _3  and  _4
REMARK    3  A    between atoms: _3  and  _6
REMARK    4  A    between atoms: _6  and  _7
REMARK    5  A    between atoms: _7  and  _8
REMARK    6  A    between atoms: _8  and  _9
REMARK    7  A    between atoms: _11  and  _15
REMARK    8  A    between atoms: _18  and  _20
REMARK    9  A    between atoms: _20  and  _21
REMARK   10  A    between atoms: _20  and  _23
REMARK   11  A    between atoms: _23  and  _24
REMARK   12  A    between atoms: _27  and  _29
REMARK   13  A    between atoms: _29  and  _30
REMARK   14  A    between atoms: _29  and  _32
REMARK   15  A    between atoms: _32  and  _33
REMARK   16  A    between atoms: _36  and  _38
REMARK   17  A    between atoms: _38  and  _39
REMARK   18  A    between atoms: _38  and  _41
REMARK   19  A    between atoms: _41  and  _42
REMARK   20  A    between atoms: _45  and  _47
REMARK   21  A    between atoms: _47  and  _48
REMARK   22  A    between atoms: _47  and  _50
REMARK   23  A    between atoms: _50  and  _51
REMARK   24  A    between atoms: _54  and  _56
REMARK   25  A    between atoms: _56  and  _57
REMARK   26  A    between atoms: _59  and  _61
REMARK   27  A    between atoms: _61  and  _62
REMARK   28  A    between atoms: _65  and  _67
REMARK   29  A    between atoms: _67  and  _68
REMARK   30  A    between atoms: _67  and  _70
REMARK   31  A    between atoms: _70  and  _71
REMARK   32  A    between atoms: _74  and  _76
REMARK   33  A    between atoms: _76  and  _77
REMARK   34  A    between atoms: _76  and  _79
REMARK   35  A    between atoms: _79  and  _80
REMARK   36  A    between atoms: _83  and  _85
REMARK   37  A    between atoms: _85  and  _86
REMARK   38  A    between atoms: _85  and  _88
REMARK   39  A    between atoms: _88  and  _89
REMARK   40  A    between atoms: _92  and  _94
REMARK   41  A    between atoms: _94  and  _95
REMARK   42  A    between atoms: _94  and  _97
REMARK   43  A    between atoms: _100  and  _102
REMARK   44  A    between atoms: _102  and  _103
REMARK   45  A    between atoms: _102  and  _105
REMARK   46  A    between atoms: _105  and  _106
REMARK   47  A    between atoms: _106  and  _107
REMARK   48  A    between atoms: _107  and  _108
REMARK   49  A    between atoms: _108  and  _109
REMARK   50  A    between atoms: _113  and  _115
REMARK   51  A    between atoms: _115  and  _116
REMARK   52  A    between atoms: _115  and  _118
REMARK   53  A    between atoms: _118  and  _119
REMARK   54  A    between atoms: _119  and  _120
REMARK   55  A    between atoms: _122  and  _124
REMARK   56  A    between atoms: _124  and  _125
REMARK   57  A    between atoms: _124  and  _127
REMARK   58  A    between atoms: _127  and  _128
REMARK   59  A    between atoms: _131  and  _133
REMARK   60  A    between atoms: _133  and  _134
REMARK   61  A    between atoms: _136  and  _138
REMARK   62  A    between atoms: _138  and  _139
REMARK   63  A    between atoms: _141  and  _143
REMARK   64  A    between atoms: _143  and  _144
REMARK   65  A    between atoms: _143  and  _146
REMARK   66  A    between atoms: _146  and  _147
REMARK   67  A    between atoms: _150  and  _152
REMARK   68  A    between atoms: _152  and  _153
REMARK   69  A    between atoms: _155  and  _157
REMARK   70  A    between atoms: _157  and  _158
REMARK   71  A    between atoms: _160  and  _162
REMARK   72  A    between atoms: _162  and  _163
REMARK   73  A    between atoms: _162  and  _165
REMARK   74  A    between atoms: _165  and  _166
REMARK   75  A    between atoms: _172  and  _174
REMARK   76  A    between atoms: _174  and  _175
REMARK   77  A    between atoms: _174  and  _177
REMARK   78  A    between atoms: _177  and  _178
REMARK   79  A    between atoms: _181  and  _183
REMARK   80  A    between atoms: _183  and  _184
REMARK   81  A    between atoms: _183  and  _186
REMARK   82  A    between atoms: _189  and  _191
REMARK   83  A    between atoms: _191  and  _192
REMARK   84  A    between atoms: _191  and  _194
REMARK   85  A    between atoms: _194  and  _195
REMARK   86  A    between atoms: _198  and  _200
REMARK   87  A    between atoms: _200  and  _201
REMARK   88  A    between atoms: _200  and  _203
REMARK   89  A    between atoms: _203  and  _204
REMARK   90  A    between atoms: _208  and  _209
REMARK   91  A    between atoms: _214  and  _216
REMARK   92  A    between atoms: _216  and  _217
REMARK   93  A    between atoms: _216  and  _219
REMARK   94  A    between atoms: _222  and  _224
REMARK   95  A    between atoms: _224  and  _225
REMARK   96  A    between atoms: _224  and  _227
REMARK   97  A    between atoms: _227  and  _228
REMARK   98  A    between atoms: _233  and  _235
REMARK   99  A    between atoms: _235  and  _236
REMARK  100  A    between atoms: _235  and  _238
REMARK  101  A    between atoms: _241  and  _243
REMARK  102  A    between atoms: _243  and  _244
REMARK  103  A    between atoms: _243  and  _246
REMARK  104  A    between atoms: _246  and  _247
REMARK  105  A    between atoms: _250  and  _252
REMARK  106  A    between atoms: _252  and  _253
REMARK  107  A    between atoms: _255  and  _257
REMARK  108  A    between atoms: _257  and  _258
REMARK  109  A    between atoms: _257  and  _260
REMARK  110  A    between atoms: _260  and  _261
REMARK  111  A    between atoms: _261  and  _262
REMARK  112  A    between atoms: _262  and  _263
REMARK  113  A    between atoms: _272  and  _274
REMARK  114  A    between atoms: _274  and  _275
REMARK  115  A    between atoms: _274  and  _277
REMARK  116  A    between atoms: _277  and  _278
REMARK  117  A    between atoms: _283  and  _285
REMARK  118  A    between atoms: _285  and  _286
REMARK  119  A    between atoms: _285  and  _288
REMARK  120  A    between atoms: _288  and  _289
REMARK  121  A    between atoms: _289  and  _290
REMARK  122  A    between atoms: _290  and  _291
REMARK  123  A    between atoms: _300  and  _302
REMARK  124  A    between atoms: _302  and  _303
REMARK  125  A    between atoms: _302  and  _305
REMARK  126  A    between atoms: _305  and  _306
REMARK  127  A    between atoms: _309  and  _311
REMARK  128  A    between atoms: _311  and  _312
REMARK  129  A    between atoms: _311  and  _314
REMARK  130  A    between atoms: _314  and  _315
REMARK  131  A    between atoms: _318  and  _320
REMARK  132  A    between atoms: _320  and  _321
REMARK  133  A    between atoms: _320  and  _323
REMARK  134  A    between atoms: _323  and  _324
REMARK  135  A    between atoms: _327  and  _329
REMARK  136  A    between atoms: _329  and  _330
REMARK  137  A    between atoms: _329  and  _332
REMARK  138  A    between atoms: _332  and  _333
REMARK  139  A    between atoms: _336  and  _338
REMARK  140  A    between atoms: _338  and  _339
REMARK  141  A    between atoms: _341  and  _343
REMARK  142  A    between atoms: _343  and  _344
REMARK  143  A    between atoms: _347  and  _349
REMARK  144  A    between atoms: _349  and  _350
REMARK  145  A    between atoms: _349  and  _352
REMARK  146  A    between atoms: _352  and  _353
REMARK  147  A    between atoms: _356  and  _358
REMARK  148  A    between atoms: _358  and  _359
REMARK  149  A    between atoms: _358  and  _361
REMARK  150  A    between atoms: _361  and  _362
REMARK  151  A    between atoms: _365  and  _367
REMARK  152  A    between atoms: _367  and  _368
REMARK  153  A    between atoms: _367  and  _370
REMARK  154  A    between atoms: _370  and  _371
REMARK  155  A    between atoms: _374  and  _376
REMARK  156  A    between atoms: _376  and  _377
REMARK  157  A    between atoms: _376  and  _379
REMARK  158  A    between atoms: _382  and  _384
REMARK  159  A    between atoms: _384  and  _385
REMARK  160  A    between atoms: _384  and  _387
REMARK  161  A    between atoms: _387  and  _388
REMARK  162  A    between atoms: _388  and  _389
REMARK  163  A    between atoms: _389  and  _390
REMARK  164  A    between atoms: _390  and  _391
REMARK  165  A    between atoms: _395  and  _397
REMARK  166  A    between atoms: _397  and  _398
REMARK  167  A    between atoms: _397  and  _400
REMARK  168  A    between atoms: _400  and  _401
REMARK  169  A    between atoms: _401  and  _402
REMARK  170  A    between atoms: _404  and  _406
REMARK  171  A    between atoms: _406  and  _407
REMARK  172  A    between atoms: _406  and  _409
REMARK  173  A    between atoms: _409  and  _410
REMARK  174  A    between atoms: _413  and  _415
REMARK  175  A    between atoms: _415  and  _416
REMARK  176  A    between atoms: _418  and  _420
REMARK  177  A    between atoms: _420  and  _421
REMARK  178  A    between atoms: _423  and  _425
REMARK  179  A    between atoms: _425  and  _426
REMARK  180  A    between atoms: _425  and  _428
REMARK  181  A    between atoms: _426  and  _427
REMARK  182  A    between atoms: _426  and  _432
REMARK  183  A    between atoms: _427  and  _592
REMARK  184  A    between atoms: _428  and  _429
REMARK  185  A    between atoms: _432  and  _434
REMARK  186  A    between atoms: _434  and  _435
REMARK  187  A    between atoms: _437  and  _439
REMARK  188  A    between atoms: _439  and  _440
REMARK  189  A    between atoms: _442  and  _444
REMARK  190  A    between atoms: _444  and  _445
REMARK  191  A    between atoms: _444  and  _447
REMARK  192  A    between atoms: _447  and  _448
REMARK  193  A    between atoms: _454  and  _456
REMARK  194  A    between atoms: _456  and  _457
REMARK  195  A    between atoms: _456  and  _459
REMARK  196  A    between atoms: _459  and  _460
REMARK  197  A    between atoms: _463  and  _465
REMARK  198  A    between atoms: _465  and  _466
REMARK  199  A    between atoms: _465  and  _468
REMARK  200  A    between atoms: _468  and  _469
REMARK  201  A    between atoms: _472  and  _474
REMARK  202  A    between atoms: _474  and  _475
REMARK  203  A    between atoms: _474  and  _477
REMARK  204  A    between atoms: _477  and  _478
REMARK  205  A    between atoms: _482  and  _483
REMARK  206  A    between atoms: _488  and  _490
REMARK  207  A    between atoms: _490  and  _491
REMARK  208  A    between atoms: _490  and  _493
REMARK  209  A    between atoms: _496  and  _498
REMARK  210  A    between atoms: _498  and  _499
REMARK  211  A    between atoms: _498  and  _501
REMARK  212  A    between atoms: _501  and  _502
REMARK  213  A    between atoms: _507  and  _509
REMARK  214  A    between atoms: _509  and  _510
REMARK  215  A    between atoms: _509  and  _512
REMARK  216  A    between atoms: _515  and  _517
REMARK  217  A    between atoms: _517  and  _518
REMARK  218  A    between atoms: _517  and  _520
REMARK  219  A    between atoms: _520  and  _521
REMARK  220  A    between atoms: _524  and  _526
REMARK  221  A    between atoms: _526  and  _527
REMARK  222  A    between atoms: _529  and  _531
REMARK  223  A    between atoms: _531  and  _532
REMARK  224  A    between atoms: _531  and  _534
REMARK  225  A    between atoms: _534  and  _535
REMARK  226  A    between atoms: _535  and  _536
REMARK  227  A    between atoms: _536  and  _537
REMARK  228  A    between atoms: _546  and  _548
REMARK  229  A    between atoms: _548  and  _549
REMARK  230  A    between atoms: _548  and  _551
REMARK  231  A    between atoms: _551  and  _552
REMARK                            x       y       z     vdW  Elec       q    Type
REMARK                         _______ _______ _______ _____ _____    ______ ____
ROOT
ATOM      1  O   HOH     1      15.728  15.563  11.768  0.00  0.00    +0.000 OA
ENDROOT
TORSDOF 0
REMARK  Name = ../refined-set-2016/2qd8/2qd8_pocket.pdb
REMARK  231 active torsions:
REMARK  status: ('A' for Active; 'I' for Inactive)
REMARK    1  A    between atoms: _1  and  _3
REMARK    2  A    between atoms: _3  and  _4
REMARK    3  A    between atoms: _3  and  _6
REMARK    4  A    between atoms: _6  and  _7
REMARK    5  A    between atoms: _7  and  _8
REMARK    6  A    between atoms: _8  and  _9
REMARK    7  A    between atoms: _11  and  _15
REMARK    8  A    between atoms: _18  and  _20
REMARK    9  A    between atoms: _20  and  _21
REMARK   10  A    between atoms: _20  and  _23
REMARK   11  A    between atoms: _23  and  _24
REMARK   12  A    between atoms: _27  and  _29
REMARK   13  A    between atoms: _29  and  _30
REMARK   14  A    between atoms: _29  and  _32
REMARK   15  A    between atoms: _32  and  _33
REMARK   16  A    between atoms: _36  and  _38
REMARK   17  A    between atoms: _38  and  _39
REMARK   18  A    between atoms: _38  and  _41
REMARK   19  A    between atoms: _41  and  _42
REMARK   20  A    between atoms: _45  and  _47
REMARK   21  A    between atoms: _47  and  _48
REMARK   22  A    between atoms: _47  and  _50
REMARK   23  A    between atoms: _50  and  _51
REMARK   24  A    between atoms: _54  and  _56
REMARK   25  A    between atoms: _56  and  _57
REMARK   26  A    between atoms: _59  and  _61
REMARK   27  A    between atoms: _61  and  _62
REMARK   28  A    between atoms: _65  and  _67
REMARK   29  A    between atoms: _67  and  _68
REMARK   30  A    between atoms: _67  and  _70
REMARK   31  A    between atoms: _70  and  _71
REMARK   32  A    between atoms: _74  and  _76
REMARK   33  A    between atoms: _76  and  _77
REMARK   34  A    between atoms: _76  and  _79
REMARK   35  A    between atoms: _79  and  _80
REMARK   36  A    between atoms: _83  and  _85
REMARK   37  A    between atoms: _85  and  _86
REMARK   38  A    between atoms: _85  and  _88
REMARK   39  A    between atoms: _88  and  _89
REMARK   40  A    between atoms: _92  and  _94
REMARK   41  A    between atoms: _94  and  _95
REMARK   42  A    between atoms: _94  and  _97
REMARK   43  A    between atoms: _100  and  _102
REMARK   44  A    between atoms: _102  and  _103
REMARK   45  A    between atoms: _102  and  _105
REMARK   46  A    between atoms: _105  and  _106
REMARK   47  A    between atoms: _106  and  _107
REMARK   48  A    between atoms: _107  and  _108
REMARK   49  A    between atoms: _108  and  _109
REMARK   50  A    between atoms: _113  and  _115
REMARK   51  A    between atoms: _115  and  _116
REMARK   52  A    between atoms: _115  and  _118
REMARK   53  A    between atoms: _118  and  _119
REMARK   54  A    between atoms: _119  and  _120
REMARK   55  A    between atoms: _122  and  _124
REMARK   56  A    between atoms: _124  and  _125
REMARK   57  A    between atoms: _124  and  _127
REMARK   58  A    between atoms: _127  and  _128
REMARK   59  A    between atoms: _131  and  _133
REMARK   60  A    between atoms: _133  and  _134
REMARK   61  A    between atoms: _136  and  _138
REMARK   62  A    between atoms: _138  and  _139
REMARK   63  A    between atoms: _141  and  _143
REMARK   64  A    between atoms: _143  and  _144
REMARK   65  A    between atoms: _143  and  _146
REMARK   66  A    between atoms: _146  and  _147
REMARK   67  A    between atoms: _150  and  _152
REMARK   68  A    between atoms: _152  and  _153
REMARK   69  A    between atoms: _155  and  _157
REMARK   70  A    between atoms: _157  and  _158
REMARK   71  A    between atoms: _160  and  _162
REMARK   72  A    between atoms: _162  and  _163
REMARK   73  A    between atoms: _162  and  _165
REMARK   74  A    between atoms: _165  and  _166
REMARK   75  A    between atoms: _172  and  _174
REMARK   76  A    between atoms: _174  and  _175
REMARK   77  A    between atoms: _174  and  _177
REMARK   78  A    between atoms: _177  and  _178
REMARK   79  A    between atoms: _181  and  _183
REMARK   80  A    between atoms: _183  and  _184
REMARK   81  A    between atoms: _183  and  _186
REMARK   82  A    between atoms: _189  and  _191
REMARK   83  A    between atoms: _191  and  _192
REMARK   84  A    between atoms: _191  and  _194
REMARK   85  A    between atoms: _194  and  _195
REMARK   86  A    between atoms: _198  and  _200
REMARK   87  A    between atoms: _200  and  _201
REMARK   88  A    between atoms: _200  and  _203
REMARK   89  A    between atoms: _203  and  _204
REMARK   90  A    between atoms: _208  and  _209
REMARK   91  A    between atoms: _214  and  _216
REMARK   92  A    between atoms: _216  and  _217
REMARK   93  A    between atoms: _216  and  _219
REMARK   94  A    between atoms: _222  and  _224
REMARK   95  A    between atoms: _224  and  _225
REMARK   96  A    between atoms: _224  and  _227
REMARK   97  A    between atoms: _227  and  _228
REMARK   98  A    between atoms: _233  and  _235
REMARK   99  A    between atoms: _235  and  _236
REMARK  100  A    between atoms: _235  and  _238
REMARK  101  A    between atoms: _241  and  _243
REMARK  102  A    between atoms: _243  and  _244
REMARK  103  A    between atoms: _243  and  _246
REMARK  104  A    between atoms: _246  and  _247
REMARK  105  A    between atoms: _250  and  _252
REMARK  106  A    between atoms: _252  and  _253
REMARK  107  A    between atoms: _255  and  _257
REMARK  108  A    between atoms: _257  and  _258
REMARK  109  A    between atoms: _257  and  _260
REMARK  110  A    between atoms: _260  and  _261
REMARK  111  A    between atoms: _261  and  _262
REMARK  112  A    between atoms: _262  and  _263
REMARK  113  A    between atoms: _272  and  _274
REMARK  114  A    between atoms: _274  and  _275
REMARK  115  A    between atoms: _274  and  _277
REMARK  116  A    between atoms: _277  and  _278
REMARK  117  A    between atoms: _283  and  _285
REMARK  118  A    between atoms: _285  and  _286
REMARK  119  A    between atoms: _285  and  _288
REMARK  120  A    between atoms: _288  and  _289
REMARK  121  A    between atoms: _289  and  _290
REMARK  122  A    between atoms: _290  and  _291
REMARK  123  A    between atoms: _300  and  _302
REMARK  124  A    between atoms: _302  and  _303
REMARK  125  A    between atoms: _302  and  _305
REMARK  126  A    between atoms: _305  and  _306
REMARK  127  A    between atoms: _309  and  _311
REMARK  128  A    between atoms: _311  and  _312
REMARK  129  A    between atoms: _311  and  _314
REMARK  130  A    between atoms: _314  and  _315
REMARK  131  A    between atoms: _318  and  _320
REMARK  132  A    between atoms: _320  and  _321
REMARK  133  A    between atoms: _320  and  _323
REMARK  134  A    between atoms: _323  and  _324
REMARK  135  A    between atoms: _327  and  _329
REMARK  136  A    between atoms: _329  and  _330
REMARK  137  A    between atoms: _329  and  _332
REMARK  138  A    between atoms: _332  and  _333
REMARK  139  A    between atoms: _336  and  _338
REMARK  140  A    between atoms: _338  and  _339
REMARK  141  A    between atoms: _341  and  _343
REMARK  142  A    between atoms: _343  and  _344
REMARK  143  A    between atoms: _347  and  _349
REMARK  144  A    between atoms: _349  and  _350
REMARK  145  A    between atoms: _349  and  _352
REMARK  146  A    between atoms: _352  and  _353
REMARK  147  A    between atoms: _356  and  _358
REMARK  148  A    between atoms: _358  and  _359
REMARK  149  A    between atoms: _358  and  _361
REMARK  150  A    between atoms: _361  and  _362
REMARK  151  A    between atoms: _365  and  _367
REMARK  152  A    between atoms: _367  and  _368
REMARK  153  A    between atoms: _367  and  _370
REMARK  154  A    between atoms: _370  and  _371
REMARK  155  A    between atoms: _374  and  _376
REMARK  156  A    between atoms: _376  and  _377
REMARK  157  A    between atoms: _376  and  _379
REMARK  158  A    between atoms: _382  and  _384
REMARK  159  A    between atoms: _384  and  _385
REMARK  160  A    between atoms: _384  and  _387
REMARK  161  A    between atoms: _387  and  _388
REMARK  162  A    between atoms: _388  and  _389
REMARK  163  A    between atoms: _389  and  _390
REMARK  164  A    between atoms: _390  and  _391
REMARK  165  A    between atoms: _395  and  _397
REMARK  166  A    between atoms: _397  and  _398
REMARK  167  A    between atoms: _397  and  _400
REMARK  168  A    between atoms: _400  and  _401
REMARK  169  A    between atoms: _401  and  _402
REMARK  170  A    between atoms: _404  and  _406
REMARK  171  A    between atoms: _406  and  _407
REMARK  172  A    between atoms: _406  and  _409
REMARK  173  A    between atoms: _409  and  _410
REMARK  174  A    between atoms: _413  and  _415
REMARK  175  A    between atoms: _415  and  _416
REMARK  176  A    between atoms: _418  and  _420
REMARK  177  A    between atoms: _420  and  _421
REMARK  178  A    between atoms: _423  and  _425
REMARK  179  A    between atoms: _425  and  _426
REMARK  180  A    between atoms: _425  and  _428
REMARK  181  A    between atoms: _426  and  _427
REMARK  182  A    between atoms: _426  and  _432
REMARK  183  A    between atoms: _427  and  _592
REMARK  184  A    between atoms: _428  and  _429
REMARK  185  A    between atoms: _432  and  _434
REMARK  186  A    between atoms: _434  and  _435
REMARK  187  A    between atoms: _437  and  _439
REMARK  188  A    between atoms: _439  and  _440
REMARK  189  A    between atoms: _442  and  _444
REMARK  190  A    between atoms: _444  and  _445
REMARK  191  A    between atoms: _444  and  _447
REMARK  192  A    between atoms: _447  and  _448
REMARK  193  A    between atoms: _454  and  _456
REMARK  194  A    between atoms: _456  and  _457
REMARK  195  A    between atoms: _456  and  _459
REMARK  196  A    between atoms: _459  and  _460
REMARK  197  A    between atoms: _463  and  _465
REMARK  198  A    between atoms: _465  and  _466
REMARK  199  A    between atoms: _465  and  _468
REMARK  200  A    between atoms: _468  and  _469
REMARK  201  A    between atoms: _472  and  _474
REMARK  202  A    between atoms: _474  and  _475
REMARK  203  A    between atoms: _474  and  _477
REMARK  204  A    between atoms: _477  and  _478
REMARK  205  A    between atoms: _482  and  _483
REMARK  206  A    between atoms: _488  and  _490
REMARK  207  A    between atoms: _490  and  _491
REMARK  208  A    between atoms: _490  and  _493
REMARK  209  A    between atoms: _496  and  _498
REMARK  210  A    between atoms: _498  and  _499
REMARK  211  A    between atoms: _498  and  _501
REMARK  212  A    between atoms: _501  and  _502
REMARK  213  A    between atoms: _507  and  _509
REMARK  214  A    between atoms: _509  and  _510
REMARK  215  A    between atoms: _509  and  _512
REMARK  216  A    between atoms: _515  and  _517
REMARK  217  A    between atoms: _517  and  _518
REMARK  218  A    between atoms: _517  and  _520
REMARK  219  A    between atoms: _520  and  _521
REMARK  220  A    between atoms: _524  and  _526
REMARK  221  A    between atoms: _526  and  _527
REMARK  222  A    between atoms: _529  and  _531
REMARK  223  A    between atoms: _531  and  _532
REMARK  224  A    between atoms: _531  and  _534
REMARK  225  A    between atoms: _534  and  _535
REMARK  226  A    between atoms: _535  and  _536
REMARK  227  A    between atoms: _536  and  _537
REMARK  228  A    between atoms: _546  and  _548
REMARK  229  A    between atoms: _548  and  _549
REMARK  230  A    between atoms: _548  and  _551
REMARK  231  A    between atoms: _551  and  _552
REMARK                            x       y       z     vdW  Elec       q    Type
REMARK                         _______ _______ _______ _____ _____    ______ ____
ROOT
ATOM      1  O   HOH     1       4.406  19.009  22.634  0.00  0.00    +0.000 OA
ENDROOT
TORSDOF 0
REMARK  Name = ../refined-set-2016/2qd8/2qd8_pocket.pdb
REMARK  231 active torsions:
REMARK  status: ('A' for Active; 'I' for Inactive)
REMARK    1  A    between atoms: _1  and  _3
REMARK    2  A    between atoms: _3  and  _4
REMARK    3  A    between atoms: _3  and  _6
REMARK    4  A    between atoms: _6  and  _7
REMARK    5  A    between atoms: _7  and  _8
REMARK    6  A    between atoms: _8  and  _9
REMARK    7  A    between atoms: _11  and  _15
REMARK    8  A    between atoms: _18  and  _20
REMARK    9  A    between atoms: _20  and  _21
REMARK   10  A    between atoms: _20  and  _23
REMARK   11  A    between atoms: _23  and  _24
REMARK   12  A    between atoms: _27  and  _29
REMARK   13  A    between atoms: _29  and  _30
REMARK   14  A    between atoms: _29  and  _32
REMARK   15  A    between atoms: _32  and  _33
REMARK   16  A    between atoms: _36  and  _38
REMARK   17  A    between atoms: _38  and  _39
REMARK   18  A    between atoms: _38  and  _41
REMARK   19  A    between atoms: _41  and  _42
REMARK   20  A    between atoms: _45  and  _47
REMARK   21  A    between atoms: _47  and  _48
REMARK   22  A    between atoms: _47  and  _50
REMARK   23  A    between atoms: _50  and  _51
REMARK   24  A    between atoms: _54  and  _56
REMARK   25  A    between atoms: _56  and  _57
REMARK   26  A    between atoms: _59  and  _61
REMARK   27  A    between atoms: _61  and  _62
REMARK   28  A    between atoms: _65  and  _67
REMARK   29  A    between atoms: _67  and  _68
REMARK   30  A    between atoms: _67  and  _70
REMARK   31  A    between atoms: _70  and  _71
REMARK   32  A    between atoms: _74  and  _76
REMARK   33  A    between atoms: _76  and  _77
REMARK   34  A    between atoms: _76  and  _79
REMARK   35  A    between atoms: _79  and  _80
REMARK   36  A    between atoms: _83  and  _85
REMARK   37  A    between atoms: _85  and  _86
REMARK   38  A    between atoms: _85  and  _88
REMARK   39  A    between atoms: _88  and  _89
REMARK   40  A    between atoms: _92  and  _94
REMARK   41  A    between atoms: _94  and  _95
REMARK   42  A    between atoms: _94  and  _97
REMARK   43  A    between atoms: _100  and  _102
REMARK   44  A    between atoms: _102  and  _103
REMARK   45  A    between atoms: _102  and  _105
REMARK   46  A    between atoms: _105  and  _106
REMARK   47  A    between atoms: _106  and  _107
REMARK   48  A    between atoms: _107  and  _108
REMARK   49  A    between atoms: _108  and  _109
REMARK   50  A    between atoms: _113  and  _115
REMARK   51  A    between atoms: _115  and  _116
REMARK   52  A    between atoms: _115  and  _118
REMARK   53  A    between atoms: _118  and  _119
REMARK   54  A    between atoms: _119  and  _120
REMARK   55  A    between atoms: _122  and  _124
REMARK   56  A    between atoms: _124  and  _125
REMARK   57  A    between atoms: _124  and  _127
REMARK   58  A    between atoms: _127  and  _128
REMARK   59  A    between atoms: _131  and  _133
REMARK   60  A    between atoms: _133  and  _134
REMARK   61  A    between atoms: _136  and  _138
REMARK   62  A    between atoms: _138  and  _139
REMARK   63  A    between atoms: _141  and  _143
REMARK   64  A    between atoms: _143  and  _144
REMARK   65  A    between atoms: _143  and  _146
REMARK   66  A    between atoms: _146  and  _147
REMARK   67  A    between atoms: _150  and  _152
REMARK   68  A    between atoms: _152  and  _153
REMARK   69  A    between atoms: _155  and  _157
REMARK   70  A    between atoms: _157  and  _158
REMARK   71  A    between atoms: _160  and  _162
REMARK   72  A    between atoms: _162  and  _163
REMARK   73  A    between atoms: _162  and  _165
REMARK   74  A    between atoms: _165  and  _166
REMARK   75  A    between atoms: _172  and  _174
REMARK   76  A    between atoms: _174  and  _175
REMARK   77  A    between atoms: _174  and  _177
REMARK   78  A    between atoms: _177  and  _178
REMARK   79  A    between atoms: _181  and  _183
REMARK   80  A    between atoms: _183  and  _184
REMARK   81  A    between atoms: _183  and  _186
REMARK   82  A    between atoms: _189  and  _191
REMARK   83  A    between atoms: _191  and  _192
REMARK   84  A    between atoms: _191  and  _194
REMARK   85  A    between atoms: _194  and  _195
REMARK   86  A    between atoms: _198  and  _200
REMARK   87  A    between atoms: _200  and  _201
REMARK   88  A    between atoms: _200  and  _203
REMARK   89  A    between atoms: _203  and  _204
REMARK   90  A    between atoms: _208  and  _209
REMARK   91  A    between atoms: _214  and  _216
REMARK   92  A    between atoms: _216  and  _217
REMARK   93  A    between atoms: _216  and  _219
REMARK   94  A    between atoms: _222  and  _224
REMARK   95  A    between atoms: _224  and  _225
REMARK   96  A    between atoms: _224  and  _227
REMARK   97  A    between atoms: _227  and  _228
REMARK   98  A    between atoms: _233  and  _235
REMARK   99  A    between atoms: _235  and  _236
REMARK  100  A    between atoms: _235  and  _238
REMARK  101  A    between atoms: _241  and  _243
REMARK  102  A    between atoms: _243  and  _244
REMARK  103  A    between atoms: _243  and  _246
REMARK  104  A    between atoms: _246  and  _247
REMARK  105  A    between atoms: _250  and  _252
REMARK  106  A    between atoms: _252  and  _253
REMARK  107  A    between atoms: _255  and  _257
REMARK  108  A    between atoms: _257  and  _258
REMARK  109  A    between atoms: _257  and  _260
REMARK  110  A    between atoms: _260  and  _261
REMARK  111  A    between atoms: _261  and  _262
REMARK  112  A    between atoms: _262  and  _263
REMARK  113  A    between atoms: _272  and  _274
REMARK  114  A    between atoms: _274  and  _275
REMARK  115  A    between atoms: _274  and  _277
REMARK  116  A    between atoms: _277  and  _278
REMARK  117  A    between atoms: _283  and  _285
REMARK  118  A    between atoms: _285  and  _286
REMARK  119  A    between atoms: _285  and  _288
REMARK  120  A    between atoms: _288  and  _289
REMARK  121  A    between atoms: _289  and  _290
REMARK  122  A    between atoms: _290  and  _291
REMARK  123  A    between atoms: _300  and  _302
REMARK  124  A    between atoms: _302  and  _303
REMARK  125  A    between atoms: _302  and  _305
REMARK  126  A    between atoms: _305  and  _306
REMARK  127  A    between atoms: _309  and  _311
REMARK  128  A    between atoms: _311  and  _312
REMARK  129  A    between atoms: _311  and  _314
REMARK  130  A    between atoms: _314  and  _315
REMARK  131  A    between atoms: _318  and  _320
REMARK  132  A    between atoms: _320  and  _321
REMARK  133  A    between atoms: _320  and  _323
REMARK  134  A    between atoms: _323  and  _324
REMARK  135  A    between atoms: _327  and  _329
REMARK  136  A    between atoms: _329  and  _330
REMARK  137  A    between atoms: _329  and  _332
REMARK  138  A    between atoms: _332  and  _333
REMARK  139  A    between atoms: _336  and  _338
REMARK  140  A    between atoms: _338  and  _339
REMARK  141  A    between atoms: _341  and  _343
REMARK  142  A    between atoms: _343  and  _344
REMARK  143  A    between atoms: _347  and  _349
REMARK  144  A    between atoms: _349  and  _350
REMARK  145  A    between atoms: _349  and  _352
REMARK  146  A    between atoms: _352  and  _353
REMARK  147  A    between atoms: _356  and  _358
REMARK  148  A    between atoms: _358  and  _359
REMARK  149  A    between atoms: _358  and  _361
REMARK  150  A    between atoms: _361  and  _362
REMARK  151  A    between atoms: _365  and  _367
REMARK  152  A    between atoms: _367  and  _368
REMARK  153  A    between atoms: _367  and  _370
REMARK  154  A    between atoms: _370  and  _371
REMARK  155  A    between atoms: _374  and  _376
REMARK  156  A    between atoms: _376  and  _377
REMARK  157  A    between atoms: _376  and  _379
REMARK  158  A    between atoms: _382  and  _384
REMARK  159  A    between atoms: _384  and  _385
REMARK  160  A    between atoms: _384  and  _387
REMARK  161  A    between atoms: _387  and  _388
REMARK  162  A    between atoms: _388  and  _389
REMARK  163  A    between atoms: _389  and  _390
REMARK  164  A    between atoms: _390  and  _391
REMARK  165  A    between atoms: _395  and  _397
REMARK  166  A    between atoms: _397  and  _398
REMARK  167  A    between atoms: _397  and  _400
REMARK  168  A    between atoms: _400  and  _401
REMARK  169  A    between atoms: _401  and  _402
REMARK  170  A    between atoms: _404  and  _406
REMARK  171  A    between atoms: _406  and  _407
REMARK  172  A    between atoms: _406  and  _409
REMARK  173  A    between atoms: _409  and  _410
REMARK  174  A    between atoms: _413  and  _415
REMARK  175  A    between atoms: _415  and  _416
REMARK  176  A    between atoms: _418  and  _420
REMARK  177  A    between atoms: _420  and  _421
REMARK  178  A    between atoms: _423  and  _425
REMARK  179  A    between atoms: _425  and  _426
REMARK  180  A    between atoms: _425  and  _428
REMARK  181  A    between atoms: _426  and  _427
REMARK  182  A    between atoms: _426  and  _432
REMARK  183  A    between atoms: _427  and  _592
REMARK  184  A    between atoms: _428  and  _429
REMARK  185  A    between atoms: _432  and  _434
REMARK  186  A    between atoms: _434  and  _435
REMARK  187  A    between atoms: _437  and  _439
REMARK  188  A    between atoms: _439  and  _440
REMARK  189  A    between atoms: _442  and  _444
REMARK  190  A    between atoms: _444  and  _445
REMARK  191  A    between atoms: _444  and  _447
REMARK  192  A    between atoms: _447  and  _448
REMARK  193  A    between atoms: _454  and  _456
REMARK  194  A    between atoms: _456  and  _457
REMARK  195  A    between atoms: _456  and  _459
REMARK  196  A    between atoms: _459  and  _460
REMARK  197  A    between atoms: _463  and  _465
REMARK  198  A    between atoms: _465  and  _466
REMARK  199  A    between atoms: _465  and  _468
REMARK  200  A    between atoms: _468  and  _469
REMARK  201  A    between atoms: _472  and  _474
REMARK  202  A    between atoms: _474  and  _475
REMARK  203  A    between atoms: _474  and  _477
REMARK  204  A    between atoms: _477  and  _478
REMARK  205  A    between atoms: _482  and  _483
REMARK  206  A    between atoms: _488  and  _490
REMARK  207  A    between atoms: _490  and  _491
REMARK  208  A    between atoms: _490  and  _493
REMARK  209  A    between atoms: _496  and  _498
REMARK  210  A    between atoms: _498  and  _499
REMARK  211  A    between atoms: _498  and  _501
REMARK  212  A    between atoms: _501  and  _502
REMARK  213  A    between atoms: _507  and  _509
REMARK  214  A    between atoms: _509  and  _510
REMARK  215  A    between atoms: _509  and  _512
REMARK  216  A    between atoms: _515  and  _517
REMARK  217  A    between atoms: _517  and  _518
REMARK  218  A    between atoms: _517  and  _520
REMARK  219  A    between atoms: _520  and  _521
REMARK  220  A    between atoms: _524  and  _526
REMARK  221  A    between atoms: _526  and  _527
REMARK  222  A    between atoms: _529  and  _531
REMARK  223  A    between atoms: _531  and  _532
REMARK  224  A    between atoms: _531  and  _534
REMARK  225  A    between atoms: _534  and  _535
REMARK  226  A    between atoms: _535  and  _536
REMARK  227  A    between atoms: _536  and  _537
REMARK  228  A    between atoms: _546  and  _548
REMARK  229  A    between atoms: _548  and  _549
REMARK  230  A    between atoms: _548  and  _551
REMARK  231  A    between atoms: _551  and  _552
REMARK                            x       y       z     vdW  Elec       q    Type
REMARK                         _______ _______ _______ _____ _____    ______ ____
ROOT
ATOM      1  O   HOH     1      13.241  16.075  11.781  0.00  0.00    +0.000 OA
ENDROOT
TORSDOF 0
REMARK  Name = ../refined-set-2016/2qd8/2qd8_pocket.pdb
REMARK  231 active torsions:
REMARK  status: ('A' for Active; 'I' for Inactive)
REMARK    1  A    between atoms: _1  and  _3
REMARK    2  A    between atoms: _3  and  _4
REMARK    3  A    between atoms: _3  and  _6
REMARK    4  A    between atoms: _6  and  _7
REMARK    5  A    between atoms: _7  and  _8
REMARK    6  A    between atoms: _8  and  _9
REMARK    7  A    between atoms: _11  and  _15
REMARK    8  A    between atoms: _18  and  _20
REMARK    9  A    between atoms: _20  and  _21
REMARK   10  A    between atoms: _20  and  _23
REMARK   11  A    between atoms: _23  and  _24
REMARK   12  A    between atoms: _27  and  _29
REMARK   13  A    between atoms: _29  and  _30
REMARK   14  A    between atoms: _29  and  _32
REMARK   15  A    between atoms: _32  and  _33
REMARK   16  A    between atoms: _36  and  _38
REMARK   17  A    between atoms: _38  and  _39
REMARK   18  A    between atoms: _38  and  _41
REMARK   19  A    between atoms: _41  and  _42
REMARK   20  A    between atoms: _45  and  _47
REMARK   21  A    between atoms: _47  and  _48
REMARK   22  A    between atoms: _47  and  _50
REMARK   23  A    between atoms: _50  and  _51
REMARK   24  A    between atoms: _54  and  _56
REMARK   25  A    between atoms: _56  and  _57
REMARK   26  A    between atoms: _59  and  _61
REMARK   27  A    between atoms: _61  and  _62
REMARK   28  A    between atoms: _65  and  _67
REMARK   29  A    between atoms: _67  and  _68
REMARK   30  A    between atoms: _67  and  _70
REMARK   31  A    between atoms: _70  and  _71
REMARK   32  A    between atoms: _74  and  _76
REMARK   33  A    between atoms: _76  and  _77
REMARK   34  A    between atoms: _76  and  _79
REMARK   35  A    between atoms: _79  and  _80
REMARK   36  A    between atoms: _83  and  _85
REMARK   37  A    between atoms: _85  and  _86
REMARK   38  A    between atoms: _85  and  _88
REMARK   39  A    between atoms: _88  and  _89
REMARK   40  A    between atoms: _92  and  _94
REMARK   41  A    between atoms: _94  and  _95
REMARK   42  A    between atoms: _94  and  _97
REMARK   43  A    between atoms: _100  and  _102
REMARK   44  A    between atoms: _102  and  _103
REMARK   45  A    between atoms: _102  and  _105
REMARK   46  A    between atoms: _105  and  _106
REMARK   47  A    between atoms: _106  and  _107
REMARK   48  A    between atoms: _107  and  _108
REMARK   49  A    between atoms: _108  and  _109
REMARK   50  A    between atoms: _113  and  _115
REMARK   51  A    between atoms: _115  and  _116
REMARK   52  A    between atoms: _115  and  _118
REMARK   53  A    between atoms: _118  and  _119
REMARK   54  A    between atoms: _119  and  _120
REMARK   55  A    between atoms: _122  and  _124
REMARK   56  A    between atoms: _124  and  _125
REMARK   57  A    between atoms: _124  and  _127
REMARK   58  A    between atoms: _127  and  _128
REMARK   59  A    between atoms: _131  and  _133
REMARK   60  A    between atoms: _133  and  _134
REMARK   61  A    between atoms: _136  and  _138
REMARK   62  A    between atoms: _138  and  _139
REMARK   63  A    between atoms: _141  and  _143
REMARK   64  A    between atoms: _143  and  _144
REMARK   65  A    between atoms: _143  and  _146
REMARK   66  A    between atoms: _146  and  _147
REMARK   67  A    between atoms: _150  and  _152
REMARK   68  A    between atoms: _152  and  _153
REMARK   69  A    between atoms: _155  and  _157
REMARK   70  A    between atoms: _157  and  _158
REMARK   71  A    between atoms: _160  and  _162
REMARK   72  A    between atoms: _162  and  _163
REMARK   73  A    between atoms: _162  and  _165
REMARK   74  A    between atoms: _165  and  _166
REMARK   75  A    between atoms: _172  and  _174
REMARK   76  A    between atoms: _174  and  _175
REMARK   77  A    between atoms: _174  and  _177
REMARK   78  A    between atoms: _177  and  _178
REMARK   79  A    between atoms: _181  and  _183
REMARK   80  A    between atoms: _183  and  _184
REMARK   81  A    between atoms: _183  and  _186
REMARK   82  A    between atoms: _189  and  _191
REMARK   83  A    between atoms: _191  and  _192
REMARK   84  A    between atoms: _191  and  _194
REMARK   85  A    between atoms: _194  and  _195
REMARK   86  A    between atoms: _198  and  _200
REMARK   87  A    between atoms: _200  and  _201
REMARK   88  A    between atoms: _200  and  _203
REMARK   89  A    between atoms: _203  and  _204
REMARK   90  A    between atoms: _208  and  _209
REMARK   91  A    between atoms: _214  and  _216
REMARK   92  A    between atoms: _216  and  _217
REMARK   93  A    between atoms: _216  and  _219
REMARK   94  A    between atoms: _222  and  _224
REMARK   95  A    between atoms: _224  and  _225
REMARK   96  A    between atoms: _224  and  _227
REMARK   97  A    between atoms: _227  and  _228
REMARK   98  A    between atoms: _233  and  _235
REMARK   99  A    between atoms: _235  and  _236
REMARK  100  A    between atoms: _235  and  _238
REMARK  101  A    between atoms: _241  and  _243
REMARK  102  A    between atoms: _243  and  _244
REMARK  103  A    between atoms: _243  and  _246
REMARK  104  A    between atoms: _246  and  _247
REMARK  105  A    between atoms: _250  and  _252
REMARK  106  A    between atoms: _252  and  _253
REMARK  107  A    between atoms: _255  and  _257
REMARK  108  A    between atoms: _257  and  _258
REMARK  109  A    between atoms: _257  and  _260
REMARK  110  A    between atoms: _260  and  _261
REMARK  111  A    between atoms: _261  and  _262
REMARK  112  A    between atoms: _262  and  _263
REMARK  113  A    between atoms: _272  and  _274
REMARK  114  A    between atoms: _274  and  _275
REMARK  115  A    between atoms: _274  and  _277
REMARK  116  A    between atoms: _277  and  _278
REMARK  117  A    between atoms: _283  and  _285
REMARK  118  A    between atoms: _285  and  _286
REMARK  119  A    between atoms: _285  and  _288
REMARK  120  A    between atoms: _288  and  _289
REMARK  121  A    between atoms: _289  and  _290
REMARK  122  A    between atoms: _290  and  _291
REMARK  123  A    between atoms: _300  and  _302
REMARK  124  A    between atoms: _302  and  _303
REMARK  125  A    between atoms: _302  and  _305
REMARK  126  A    between atoms: _305  and  _306
REMARK  127  A    between atoms: _309  and  _311
REMARK  128  A    between atoms: _311  and  _312
REMARK  129  A    between atoms: _311  and  _314
REMARK  130  A    between atoms: _314  and  _315
REMARK  131  A    between atoms: _318  and  _320
REMARK  132  A    between atoms: _320  and  _321
REMARK  133  A    between atoms: _320  and  _323
REMARK  134  A    between atoms: _323  and  _324
REMARK  135  A    between atoms: _327  and  _329
REMARK  136  A    between atoms: _329  and  _330
REMARK  137  A    between atoms: _329  and  _332
REMARK  138  A    between atoms: _332  and  _333
REMARK  139  A    between atoms: _336  and  _338
REMARK  140  A    between atoms: _338  and  _339
REMARK  141  A    between atoms: _341  and  _343
REMARK  142  A    between atoms: _343  and  _344
REMARK  143  A    between atoms: _347  and  _349
REMARK  144  A    between atoms: _349  and  _350
REMARK  145  A    between atoms: _349  and  _352
REMARK  146  A    between atoms: _352  and  _353
REMARK  147  A    between atoms: _356  and  _358
REMARK  148  A    between atoms: _358  and  _359
REMARK  149  A    between atoms: _358  and  _361
REMARK  150  A    between atoms: _361  and  _362
REMARK  151  A    between atoms: _365  and  _367
REMARK  152  A    between atoms: _367  and  _368
REMARK  153  A    between atoms: _367  and  _370
REMARK  154  A    between atoms: _370  and  _371
REMARK  155  A    between atoms: _374  and  _376
REMARK  156  A    between atoms: _376  and  _377
REMARK  157  A    between atoms: _376  and  _379
REMARK  158  A    between atoms: _382  and  _384
REMARK  159  A    between atoms: _384  and  _385
REMARK  160  A    between atoms: _384  and  _387
REMARK  161  A    between atoms: _387  and  _388
REMARK  162  A    between atoms: _388  and  _389
REMARK  163  A    between atoms: _389  and  _390
REMARK  164  A    between atoms: _390  and  _391
REMARK  165  A    between atoms: _395  and  _397
REMARK  166  A    between atoms: _397  and  _398
REMARK  167  A    between atoms: _397  and  _400
REMARK  168  A    between atoms: _400  and  _401
REMARK  169  A    between atoms: _401  and  _402
REMARK  170  A    between atoms: _404  and  _406
REMARK  171  A    between atoms: _406  and  _407
REMARK  172  A    between atoms: _406  and  _409
REMARK  173  A    between atoms: _409  and  _410
REMARK  174  A    between atoms: _413  and  _415
REMARK  175  A    between atoms: _415  and  _416
REMARK  176  A    between atoms: _418  and  _420
REMARK  177  A    between atoms: _420  and  _421
REMARK  178  A    between atoms: _423  and  _425
REMARK  179  A    between atoms: _425  and  _426
REMARK  180  A    between atoms: _425  and  _428
REMARK  181  A    between atoms: _426  and  _427
REMARK  182  A    between atoms: _426  and  _432
REMARK  183  A    between atoms: _427  and  _592
REMARK  184  A    between atoms: _428  and  _429
REMARK  185  A    between atoms: _432  and  _434
REMARK  186  A    between atoms: _434  and  _435
REMARK  187  A    between atoms: _437  and  _439
REMARK  188  A    between atoms: _439  and  _440
REMARK  189  A    between atoms: _442  and  _444
REMARK  190  A    between atoms: _444  and  _445
REMARK  191  A    between atoms: _444  and  _447
REMARK  192  A    between atoms: _447  and  _448
REMARK  193  A    between atoms: _454  and  _456
REMARK  194  A    between atoms: _456  and  _457
REMARK  195  A    between atoms: _456  and  _459
REMARK  196  A    between atoms: _459  and  _460
REMARK  197  A    between atoms: _463  and  _465
REMARK  198  A    between atoms: _465  and  _466
REMARK  199  A    between atoms: _465  and  _468
REMARK  200  A    between atoms: _468  and  _469
REMARK  201  A    between atoms: _472  and  _474
REMARK  202  A    between atoms: _474  and  _475
REMARK  203  A    between atoms: _474  and  _477
REMARK  204  A    between atoms: _477  and  _478
REMARK  205  A    between atoms: _482  and  _483
REMARK  206  A    between atoms: _488  and  _490
REMARK  207  A    between atoms: _490  and  _491
REMARK  208  A    between atoms: _490  and  _493
REMARK  209  A    between atoms: _496  and  _498
REMARK  210  A    between atoms: _498  and  _499
REMARK  211  A    between atoms: _498  and  _501
REMARK  212  A    between atoms: _501  and  _502
REMARK  213  A    between atoms: _507  and  _509
REMARK  214  A    between atoms: _509  and  _510
REMARK  215  A    between atoms: _509  and  _512
REMARK  216  A    between atoms: _515  and  _517
REMARK  217  A    between atoms: _517  and  _518
REMARK  218  A    between atoms: _517  and  _520
REMARK  219  A    between atoms: _520  and  _521
REMARK  220  A    between atoms: _524  and  _526
REMARK  221  A    between atoms: _526  and  _527
REMARK  222  A    between atoms: _529  and  _531
REMARK  223  A    between atoms: _531  and  _532
REMARK  224  A    between atoms: _531  and  _534
REMARK  225  A    between atoms: _534  and  _535
REMARK  226  A    between atoms: _535  and  _536
REMARK  227  A    between atoms: _536  and  _537
REMARK  228  A    between atoms: _546  and  _548
REMARK  229  A    between atoms: _548  and  _549
REMARK  230  A    between atoms: _548  and  _551
REMARK  231  A    between atoms: _551  and  _552
REMARK                            x       y       z     vdW  Elec       q    Type
REMARK                         _______ _______ _______ _____ _____    ______ ____
ROOT
ATOM      1  O   HOH     1       7.098  15.689  18.378  0.00  0.00    +0.000 OA
ENDROOT
TORSDOF 0
REMARK  Name = ../refined-set-2016/2qd8/2qd8_pocket.pdb
REMARK  231 active torsions:
REMARK  status: ('A' for Active; 'I' for Inactive)
REMARK    1  A    between atoms: _1  and  _3
REMARK    2  A    between atoms: _3  and  _4
REMARK    3  A    between atoms: _3  and  _6
REMARK    4  A    between atoms: _6  and  _7
REMARK    5  A    between atoms: _7  and  _8
REMARK    6  A    between atoms: _8  and  _9
REMARK    7  A    between atoms: _11  and  _15
REMARK    8  A    between atoms: _18  and  _20
REMARK    9  A    between atoms: _20  and  _21
REMARK   10  A    between atoms: _20  and  _23
REMARK   11  A    between atoms: _23  and  _24
REMARK   12  A    between atoms: _27  and  _29
REMARK   13  A    between atoms: _29  and  _30
REMARK   14  A    between atoms: _29  and  _32
REMARK   15  A    between atoms: _32  and  _33
REMARK   16  A    between atoms: _36  and  _38
REMARK   17  A    between atoms: _38  and  _39
REMARK   18  A    between atoms: _38  and  _41
REMARK   19  A    between atoms: _41  and  _42
REMARK   20  A    between atoms: _45  and  _47
REMARK   21  A    between atoms: _47  and  _48
REMARK   22  A    between atoms: _47  and  _50
REMARK   23  A    between atoms: _50  and  _51
REMARK   24  A    between atoms: _54  and  _56
REMARK   25  A    between atoms: _56  and  _57
REMARK   26  A    between atoms: _59  and  _61
REMARK   27  A    between atoms: _61  and  _62
REMARK   28  A    between atoms: _65  and  _67
REMARK   29  A    between atoms: _67  and  _68
REMARK   30  A    between atoms: _67  and  _70
REMARK   31  A    between atoms: _70  and  _71
REMARK   32  A    between atoms: _74  and  _76
REMARK   33  A    between atoms: _76  and  _77
REMARK   34  A    between atoms: _76  and  _79
REMARK   35  A    between atoms: _79  and  _80
REMARK   36  A    between atoms: _83  and  _85
REMARK   37  A    between atoms: _85  and  _86
REMARK   38  A    between atoms: _85  and  _88
REMARK   39  A    between atoms: _88  and  _89
REMARK   40  A    between atoms: _92  and  _94
REMARK   41  A    between atoms: _94  and  _95
REMARK   42  A    between atoms: _94  and  _97
REMARK   43  A    between atoms: _100  and  _102
REMARK   44  A    between atoms: _102  and  _103
REMARK   45  A    between atoms: _102  and  _105
REMARK   46  A    between atoms: _105  and  _106
REMARK   47  A    between atoms: _106  and  _107
REMARK   48  A    between atoms: _107  and  _108
REMARK   49  A    between atoms: _108  and  _109
REMARK   50  A    between atoms: _113  and  _115
REMARK   51  A    between atoms: _115  and  _116
REMARK   52  A    between atoms: _115  and  _118
REMARK   53  A    between atoms: _118  and  _119
REMARK   54  A    between atoms: _119  and  _120
REMARK   55  A    between atoms: _122  and  _124
REMARK   56  A    between atoms: _124  and  _125
REMARK   57  A    between atoms: _124  and  _127
REMARK   58  A    between atoms: _127  and  _128
REMARK   59  A    between atoms: _131  and  _133
REMARK   60  A    between atoms: _133  and  _134
REMARK   61  A    between atoms: _136  and  _138
REMARK   62  A    between atoms: _138  and  _139
REMARK   63  A    between atoms: _141  and  _143
REMARK   64  A    between atoms: _143  and  _144
REMARK   65  A    between atoms: _143  and  _146
REMARK   66  A    between atoms: _146  and  _147
REMARK   67  A    between atoms: _150  and  _152
REMARK   68  A    between atoms: _152  and  _153
REMARK   69  A    between atoms: _155  and  _157
REMARK   70  A    between atoms: _157  and  _158
REMARK   71  A    between atoms: _160  and  _162
REMARK   72  A    between atoms: _162  and  _163
REMARK   73  A    between atoms: _162  and  _165
REMARK   74  A    between atoms: _165  and  _166
REMARK   75  A    between atoms: _172  and  _174
REMARK   76  A    between atoms: _174  and  _175
REMARK   77  A    between atoms: _174  and  _177
REMARK   78  A    between atoms: _177  and  _178
REMARK   79  A    between atoms: _181  and  _183
REMARK   80  A    between atoms: _183  and  _184
REMARK   81  A    between atoms: _183  and  _186
REMARK   82  A    between atoms: _189  and  _191
REMARK   83  A    between atoms: _191  and  _192
REMARK   84  A    between atoms: _191  and  _194
REMARK   85  A    between atoms: _194  and  _195
REMARK   86  A    between atoms: _198  and  _200
REMARK   87  A    between atoms: _200  and  _201
REMARK   88  A    between atoms: _200  and  _203
REMARK   89  A    between atoms: _203  and  _204
REMARK   90  A    between atoms: _208  and  _209
REMARK   91  A    between atoms: _214  and  _216
REMARK   92  A    between atoms: _216  and  _217
REMARK   93  A    between atoms: _216  and  _219
REMARK   94  A    between atoms: _222  and  _224
REMARK   95  A    between atoms: _224  and  _225
REMARK   96  A    between atoms: _224  and  _227
REMARK   97  A    between atoms: _227  and  _228
REMARK   98  A    between atoms: _233  and  _235
REMARK   99  A    between atoms: _235  and  _236
REMARK  100  A    between atoms: _235  and  _238
REMARK  101  A    between atoms: _241  and  _243
REMARK  102  A    between atoms: _243  and  _244
REMARK  103  A    between atoms: _243  and  _246
REMARK  104  A    between atoms: _246  and  _247
REMARK  105  A    between atoms: _250  and  _252
REMARK  106  A    between atoms: _252  and  _253
REMARK  107  A    between atoms: _255  and  _257
REMARK  108  A    between atoms: _257  and  _258
REMARK  109  A    between atoms: _257  and  _260
REMARK  110  A    between atoms: _260  and  _261
REMARK  111  A    between atoms: _261  and  _262
REMARK  112  A    between atoms: _262  and  _263
REMARK  113  A    between atoms: _272  and  _274
REMARK  114  A    between atoms: _274  and  _275
REMARK  115  A    between atoms: _274  and  _277
REMARK  116  A    between atoms: _277  and  _278
REMARK  117  A    between atoms: _283  and  _285
REMARK  118  A    between atoms: _285  and  _286
REMARK  119  A    between atoms: _285  and  _288
REMARK  120  A    between atoms: _288  and  _289
REMARK  121  A    between atoms: _289  and  _290
REMARK  122  A    between atoms: _290  and  _291
REMARK  123  A    between atoms: _300  and  _302
REMARK  124  A    between atoms: _302  and  _303
REMARK  125  A    between atoms: _302  and  _305
REMARK  126  A    between atoms: _305  and  _306
REMARK  127  A    between atoms: _309  and  _311
REMARK  128  A    between atoms: _311  and  _312
REMARK  129  A    between atoms: _311  and  _314
REMARK  130  A    between atoms: _314  and  _315
REMARK  131  A    between atoms: _318  and  _320
REMARK  132  A    between atoms: _320  and  _321
REMARK  133  A    between atoms: _320  and  _323
REMARK  134  A    between atoms: _323  and  _324
REMARK  135  A    between atoms: _327  and  _329
REMARK  136  A    between atoms: _329  and  _330
REMARK  137  A    between atoms: _329  and  _332
REMARK  138  A    between atoms: _332  and  _333
REMARK  139  A    between atoms: _336  and  _338
REMARK  140  A    between atoms: _338  and  _339
REMARK  141  A    between atoms: _341  and  _343
REMARK  142  A    between atoms: _343  and  _344
REMARK  143  A    between atoms: _347  and  _349
REMARK  144  A    between atoms: _349  and  _350
REMARK  145  A    between atoms: _349  and  _352
REMARK  146  A    between atoms: _352  and  _353
REMARK  147  A    between atoms: _356  and  _358
REMARK  148  A    between atoms: _358  and  _359
REMARK  149  A    between atoms: _358  and  _361
REMARK  150  A    between atoms: _361  and  _362
REMARK  151  A    between atoms: _365  and  _367
REMARK  152  A    between atoms: _367  and  _368
REMARK  153  A    between atoms: _367  and  _370
REMARK  154  A    between atoms: _370  and  _371
REMARK  155  A    between atoms: _374  and  _376
REMARK  156  A    between atoms: _376  and  _377
REMARK  157  A    between atoms: _376  and  _379
REMARK  158  A    between atoms: _382  and  _384
REMARK  159  A    between atoms: _384  and  _385
REMARK  160  A    between atoms: _384  and  _387
REMARK  161  A    between atoms: _387  and  _388
REMARK  162  A    between atoms: _388  and  _389
REMARK  163  A    between atoms: _389  and  _390
REMARK  164  A    between atoms: _390  and  _391
REMARK  165  A    between atoms: _395  and  _397
REMARK  166  A    between atoms: _397  and  _398
REMARK  167  A    between atoms: _397  and  _400
REMARK  168  A    between atoms: _400  and  _401
REMARK  169  A    between atoms: _401  and  _402
REMARK  170  A    between atoms: _404  and  _406
REMARK  171  A    between atoms: _406  and  _407
REMARK  172  A    between atoms: _406  and  _409
REMARK  173  A    between atoms: _409  and  _410
REMARK  174  A    between atoms: _413  and  _415
REMARK  175  A    between atoms: _415  and  _416
REMARK  176  A    between atoms: _418  and  _420
REMARK  177  A    between atoms: _420  and  _421
REMARK  178  A    between atoms: _423  and  _425
REMARK  179  A    between atoms: _425  and  _426
REMARK  180  A    between atoms: _425  and  _428
REMARK  181  A    between atoms: _426  and  _427
REMARK  182  A    between atoms: _426  and  _432
REMARK  183  A    between atoms: _427  and  _592
REMARK  184  A    between atoms: _428  and  _429
REMARK  185  A    between atoms: _432  and  _434
REMARK  186  A    between atoms: _434  and  _435
REMARK  187  A    between atoms: _437  and  _439
REMARK  188  A    between atoms: _439  and  _440
REMARK  189  A    between atoms: _442  and  _444
REMARK  190  A    between atoms: _444  and  _445
REMARK  191  A    between atoms: _444  and  _447
REMARK  192  A    between atoms: _447  and  _448
REMARK  193  A    between atoms: _454  and  _456
REMARK  194  A    between atoms: _456  and  _457
REMARK  195  A    between atoms: _456  and  _459
REMARK  196  A    between atoms: _459  and  _460
REMARK  197  A    between atoms: _463  and  _465
REMARK  198  A    between atoms: _465  and  _466
REMARK  199  A    between atoms: _465  and  _468
REMARK  200  A    between atoms: _468  and  _469
REMARK  201  A    between atoms: _472  and  _474
REMARK  202  A    between atoms: _474  and  _475
REMARK  203  A    between atoms: _474  and  _477
REMARK  204  A    between atoms: _477  and  _478
REMARK  205  A    between atoms: _482  and  _483
REMARK  206  A    between atoms: _488  and  _490
REMARK  207  A    between atoms: _490  and  _491
REMARK  208  A    between atoms: _490  and  _493
REMARK  209  A    between atoms: _496  and  _498
REMARK  210  A    between atoms: _498  and  _499
REMARK  211  A    between atoms: _498  and  _501
REMARK  212  A    between atoms: _501  and  _502
REMARK  213  A    between atoms: _507  and  _509
REMARK  214  A    between atoms: _509  and  _510
REMARK  215  A    between atoms: _509  and  _512
REMARK  216  A    between atoms: _515  and  _517
REMARK  217  A    between atoms: _517  and  _518
REMARK  218  A    between atoms: _517  and  _520
REMARK  219  A    between atoms: _520  and  _521
REMARK  220  A    between atoms: _524  and  _526
REMARK  221  A    between atoms: _526  and  _527
REMARK  222  A    between atoms: _529  and  _531
REMARK  223  A    between atoms: _531  and  _532
REMARK  224  A    between atoms: _531  and  _534
REMARK  225  A    between atoms: _534  and  _535
REMARK  226  A    between atoms: _535  and  _536
REMARK  227  A    between atoms: _536  and  _537
REMARK  228  A    between atoms: _546  and  _548
REMARK  229  A    between atoms: _548  and  _549
REMARK  230  A    between atoms: _548  and  _551
REMARK  231  A    between atoms: _551  and  _552
REMARK                            x       y       z     vdW  Elec       q    Type
REMARK                         _______ _______ _______ _____ _____    ______ ____
ROOT
ATOM      1  O   HOH     1       6.993  15.746  25.226  0.00  0.00    +0.000 OA
ENDROOT
TORSDOF 0
REMARK  Name = ../refined-set-2016/2qd8/2qd8_pocket.pdb
REMARK  231 active torsions:
REMARK  status: ('A' for Active; 'I' for Inactive)
REMARK    1  A    between atoms: _1  and  _3
REMARK    2  A    between atoms: _3  and  _4
REMARK    3  A    between atoms: _3  and  _6
REMARK    4  A    between atoms: _6  and  _7
REMARK    5  A    between atoms: _7  and  _8
REMARK    6  A    between atoms: _8  and  _9
REMARK    7  A    between atoms: _11  and  _15
REMARK    8  A    between atoms: _18  and  _20
REMARK    9  A    between atoms: _20  and  _21
REMARK   10  A    between atoms: _20  and  _23
REMARK   11  A    between atoms: _23  and  _24
REMARK   12  A    between atoms: _27  and  _29
REMARK   13  A    between atoms: _29  and  _30
REMARK   14  A    between atoms: _29  and  _32
REMARK   15  A    between atoms: _32  and  _33
REMARK   16  A    between atoms: _36  and  _38
REMARK   17  A    between atoms: _38  and  _39
REMARK   18  A    between atoms: _38  and  _41
REMARK   19  A    between atoms: _41  and  _42
REMARK   20  A    between atoms: _45  and  _47
REMARK   21  A    between atoms: _47  and  _48
REMARK   22  A    between atoms: _47  and  _50
REMARK   23  A    between atoms: _50  and  _51
REMARK   24  A    between atoms: _54  and  _56
REMARK   25  A    between atoms: _56  and  _57
REMARK   26  A    between atoms: _59  and  _61
REMARK   27  A    between atoms: _61  and  _62
REMARK   28  A    between atoms: _65  and  _67
REMARK   29  A    between atoms: _67  and  _68
REMARK   30  A    between atoms: _67  and  _70
REMARK   31  A    between atoms: _70  and  _71
REMARK   32  A    between atoms: _74  and  _76
REMARK   33  A    between atoms: _76  and  _77
REMARK   34  A    between atoms: _76  and  _79
REMARK   35  A    between atoms: _79  and  _80
REMARK   36  A    between atoms: _83  and  _85
REMARK   37  A    between atoms: _85  and  _86
REMARK   38  A    between atoms: _85  and  _88
REMARK   39  A    between atoms: _88  and  _89
REMARK   40  A    between atoms: _92  and  _94
REMARK   41  A    between atoms: _94  and  _95
REMARK   42  A    between atoms: _94  and  _97
REMARK   43  A    between atoms: _100  and  _102
REMARK   44  A    between atoms: _102  and  _103
REMARK   45  A    between atoms: _102  and  _105
REMARK   46  A    between atoms: _105  and  _106
REMARK   47  A    between atoms: _106  and  _107
REMARK   48  A    between atoms: _107  and  _108
REMARK   49  A    between atoms: _108  and  _109
REMARK   50  A    between atoms: _113  and  _115
REMARK   51  A    between atoms: _115  and  _116
REMARK   52  A    between atoms: _115  and  _118
REMARK   53  A    between atoms: _118  and  _119
REMARK   54  A    between atoms: _119  and  _120
REMARK   55  A    between atoms: _122  and  _124
REMARK   56  A    between atoms: _124  and  _125
REMARK   57  A    between atoms: _124  and  _127
REMARK   58  A    between atoms: _127  and  _128
REMARK   59  A    between atoms: _131  and  _133
REMARK   60  A    between atoms: _133  and  _134
REMARK   61  A    between atoms: _136  and  _138
REMARK   62  A    between atoms: _138  and  _139
REMARK   63  A    between atoms: _141  and  _143
REMARK   64  A    between atoms: _143  and  _144
REMARK   65  A    between atoms: _143  and  _146
REMARK   66  A    between atoms: _146  and  _147
REMARK   67  A    between atoms: _150  and  _152
REMARK   68  A    between atoms: _152  and  _153
REMARK   69  A    between atoms: _155  and  _157
REMARK   70  A    between atoms: _157  and  _158
REMARK   71  A    between atoms: _160  and  _162
REMARK   72  A    between atoms: _162  and  _163
REMARK   73  A    between atoms: _162  and  _165
REMARK   74  A    between atoms: _165  and  _166
REMARK   75  A    between atoms: _172  and  _174
REMARK   76  A    between atoms: _174  and  _175
REMARK   77  A    between atoms: _174  and  _177
REMARK   78  A    between atoms: _177  and  _178
REMARK   79  A    between atoms: _181  and  _183
REMARK   80  A    between atoms: _183  and  _184
REMARK   81  A    between atoms: _183  and  _186
REMARK   82  A    between atoms: _189  and  _191
REMARK   83  A    between atoms: _191  and  _192
REMARK   84  A    between atoms: _191  and  _194
REMARK   85  A    between atoms: _194  and  _195
REMARK   86  A    between atoms: _198  and  _200
REMARK   87  A    between atoms: _200  and  _201
REMARK   88  A    between atoms: _200  and  _203
REMARK   89  A    between atoms: _203  and  _204
REMARK   90  A    between atoms: _208  and  _209
REMARK   91  A    between atoms: _214  and  _216
REMARK   92  A    between atoms: _216  and  _217
REMARK   93  A    between atoms: _216  and  _219
REMARK   94  A    between atoms: _222  and  _224
REMARK   95  A    between atoms: _224  and  _225
REMARK   96  A    between atoms: _224  and  _227
REMARK   97  A    between atoms: _227  and  _228
REMARK   98  A    between atoms: _233  and  _235
REMARK   99  A    between atoms: _235  and  _236
REMARK  100  A    between atoms: _235  and  _238
REMARK  101  A    between atoms: _241  and  _243
REMARK  102  A    between atoms: _243  and  _244
REMARK  103  A    between atoms: _243  and  _246
REMARK  104  A    between atoms: _246  and  _247
REMARK  105  A    between atoms: _250  and  _252
REMARK  106  A    between atoms: _252  and  _253
REMARK  107  A    between atoms: _255  and  _257
REMARK  108  A    between atoms: _257  and  _258
REMARK  109  A    between atoms: _257  and  _260
REMARK  110  A    between atoms: _260  and  _261
REMARK  111  A    between atoms: _261  and  _262
REMARK  112  A    between atoms: _262  and  _263
REMARK  113  A    between atoms: _272  and  _274
REMARK  114  A    between atoms: _274  and  _275
REMARK  115  A    between atoms: _274  and  _277
REMARK  116  A    between atoms: _277  and  _278
REMARK  117  A    between atoms: _283  and  _285
REMARK  118  A    between atoms: _285  and  _286
REMARK  119  A    between atoms: _285  and  _288
REMARK  120  A    between atoms: _288  and  _289
REMARK  121  A    between atoms: _289  and  _290
REMARK  122  A    between atoms: _290  and  _291
REMARK  123  A    between atoms: _300  and  _302
REMARK  124  A    between atoms: _302  and  _303
REMARK  125  A    between atoms: _302  and  _305
REMARK  126  A    between atoms: _305  and  _306
REMARK  127  A    between atoms: _309  and  _311
REMARK  128  A    between atoms: _311  and  _312
REMARK  129  A    between atoms: _311  and  _314
REMARK  130  A    between atoms: _314  and  _315
REMARK  131  A    between atoms: _318  and  _320
REMARK  132  A    between atoms: _320  and  _321
REMARK  133  A    between atoms: _320  and  _323
REMARK  134  A    between atoms: _323  and  _324
REMARK  135  A    between atoms: _327  and  _329
REMARK  136  A    between atoms: _329  and  _330
REMARK  137  A    between atoms: _329  and  _332
REMARK  138  A    between atoms: _332  and  _333
REMARK  139  A    between atoms: _336  and  _338
REMARK  140  A    between atoms: _338  and  _339
REMARK  141  A    between atoms: _341  and  _343
REMARK  142  A    between atoms: _343  and  _344
REMARK  143  A    between atoms: _347  and  _349
REMARK  144  A    between atoms: _349  and  _350
REMARK  145  A    between atoms: _349  and  _352
REMARK  146  A    between atoms: _352  and  _353
REMARK  147  A    between atoms: _356  and  _358
REMARK  148  A    between atoms: _358  and  _359
REMARK  149  A    between atoms: _358  and  _361
REMARK  150  A    between atoms: _361  and  _362
REMARK  151  A    between atoms: _365  and  _367
REMARK  152  A    between atoms: _367  and  _368
REMARK  153  A    between atoms: _367  and  _370
REMARK  154  A    between atoms: _370  and  _371
REMARK  155  A    between atoms: _374  and  _376
REMARK  156  A    between atoms: _376  and  _377
REMARK  157  A    between atoms: _376  and  _379
REMARK  158  A    between atoms: _382  and  _384
REMARK  159  A    between atoms: _384  and  _385
REMARK  160  A    between atoms: _384  and  _387
REMARK  161  A    between atoms: _387  and  _388
REMARK  162  A    between atoms: _388  and  _389
REMARK  163  A    between atoms: _389  and  _390
REMARK  164  A    between atoms: _390  and  _391
REMARK  165  A    between atoms: _395  and  _397
REMARK  166  A    between atoms: _397  and  _398
REMARK  167  A    between atoms: _397  and  _400
REMARK  168  A    between atoms: _400  and  _401
REMARK  169  A    between atoms: _401  and  _402
REMARK  170  A    between atoms: _404  and  _406
REMARK  171  A    between atoms: _406  and  _407
REMARK  172  A    between atoms: _406  and  _409
REMARK  173  A    between atoms: _409  and  _410
REMARK  174  A    between atoms: _413  and  _415
REMARK  175  A    between atoms: _415  and  _416
REMARK  176  A    between atoms: _418  and  _420
REMARK  177  A    between atoms: _420  and  _421
REMARK  178  A    between atoms: _423  and  _425
REMARK  179  A    between atoms: _425  and  _426
REMARK  180  A    between atoms: _425  and  _428
REMARK  181  A    between atoms: _426  and  _427
REMARK  182  A    between atoms: _426  and  _432
REMARK  183  A    between atoms: _427  and  _592
REMARK  184  A    between atoms: _428  and  _429
REMARK  185  A    between atoms: _432  and  _434
REMARK  186  A    between atoms: _434  and  _435
REMARK  187  A    between atoms: _437  and  _439
REMARK  188  A    between atoms: _439  and  _440
REMARK  189  A    between atoms: _442  and  _444
REMARK  190  A    between atoms: _444  and  _445
REMARK  191  A    between atoms: _444  and  _447
REMARK  192  A    between atoms: _447  and  _448
REMARK  193  A    between atoms: _454  and  _456
REMARK  194  A    between atoms: _456  and  _457
REMARK  195  A    between atoms: _456  and  _459
REMARK  196  A    between atoms: _459  and  _460
REMARK  197  A    between atoms: _463  and  _465
REMARK  198  A    between atoms: _465  and  _466
REMARK  199  A    between atoms: _465  and  _468
REMARK  200  A    between atoms: _468  and  _469
REMARK  201  A    between atoms: _472  and  _474
REMARK  202  A    between atoms: _474  and  _475
REMARK  203  A    between atoms: _474  and  _477
REMARK  204  A    between atoms: _477  and  _478
REMARK  205  A    between atoms: _482  and  _483
REMARK  206  A    between atoms: _488  and  _490
REMARK  207  A    between atoms: _490  and  _491
REMARK  208  A    between atoms: _490  and  _493
REMARK  209  A    between atoms: _496  and  _498
REMARK  210  A    between atoms: _498  and  _499
REMARK  211  A    between atoms: _498  and  _501
REMARK  212  A    between atoms: _501  and  _502
REMARK  213  A    between atoms: _507  and  _509
REMARK  214  A    between atoms: _509  and  _510
REMARK  215  A    between atoms: _509  and  _512
REMARK  216  A    between atoms: _515  and  _517
REMARK  217  A    between atoms: _517  and  _518
REMARK  218  A    between atoms: _517  and  _520
REMARK  219  A    between atoms: _520  and  _521
REMARK  220  A    between atoms: _524  and  _526
REMARK  221  A    between atoms: _526  and  _527
REMARK  222  A    between atoms: _529  and  _531
REMARK  223  A    between atoms: _531  and  _532
REMARK  224  A    between atoms: _531  and  _534
REMARK  225  A    between atoms: _534  and  _535
REMARK  226  A    between atoms: _535  and  _536
REMARK  227  A    between atoms: _536  and  _537
REMARK  228  A    between atoms: _546  and  _548
REMARK  229  A    between atoms: _548  and  _549
REMARK  230  A    between atoms: _548  and  _551
REMARK  231  A    between atoms: _551  and  _552
REMARK                            x       y       z     vdW  Elec       q    Type
REMARK                         _______ _______ _______ _____ _____    ______ ____
ROOT
ATOM      1  O   HOH     1      11.692  16.408  13.561  0.00  0.00    +0.000 OA
ENDROOT
TORSDOF 0
REMARK  Name = ../refined-set-2016/2qd8/2qd8_pocket.pdb
REMARK  231 active torsions:
REMARK  status: ('A' for Active; 'I' for Inactive)
REMARK    1  A    between atoms: _1  and  _3
REMARK    2  A    between atoms: _3  and  _4
REMARK    3  A    between atoms: _3  and  _6
REMARK    4  A    between atoms: _6  and  _7
REMARK    5  A    between atoms: _7  and  _8
REMARK    6  A    between atoms: _8  and  _9
REMARK    7  A    between atoms: _11  and  _15
REMARK    8  A    between atoms: _18  and  _20
REMARK    9  A    between atoms: _20  and  _21
REMARK   10  A    between atoms: _20  and  _23
REMARK   11  A    between atoms: _23  and  _24
REMARK   12  A    between atoms: _27  and  _29
REMARK   13  A    between atoms: _29  and  _30
REMARK   14  A    between atoms: _29  and  _32
REMARK   15  A    between atoms: _32  and  _33
REMARK   16  A    between atoms: _36  and  _38
REMARK   17  A    between atoms: _38  and  _39
REMARK   18  A    between atoms: _38  and  _41
REMARK   19  A    between atoms: _41  and  _42
REMARK   20  A    between atoms: _45  and  _47
REMARK   21  A    between atoms: _47  and  _48
REMARK   22  A    between atoms: _47  and  _50
REMARK   23  A    between atoms: _50  and  _51
REMARK   24  A    between atoms: _54  and  _56
REMARK   25  A    between atoms: _56  and  _57
REMARK   26  A    between atoms: _59  and  _61
REMARK   27  A    between atoms: _61  and  _62
REMARK   28  A    between atoms: _65  and  _67
REMARK   29  A    between atoms: _67  and  _68
REMARK   30  A    between atoms: _67  and  _70
REMARK   31  A    between atoms: _70  and  _71
REMARK   32  A    between atoms: _74  and  _76
REMARK   33  A    between atoms: _76  and  _77
REMARK   34  A    between atoms: _76  and  _79
REMARK   35  A    between atoms: _79  and  _80
REMARK   36  A    between atoms: _83  and  _85
REMARK   37  A    between atoms: _85  and  _86
REMARK   38  A    between atoms: _85  and  _88
REMARK   39  A    between atoms: _88  and  _89
REMARK   40  A    between atoms: _92  and  _94
REMARK   41  A    between atoms: _94  and  _95
REMARK   42  A    between atoms: _94  and  _97
REMARK   43  A    between atoms: _100  and  _102
REMARK   44  A    between atoms: _102  and  _103
REMARK   45  A    between atoms: _102  and  _105
REMARK   46  A    between atoms: _105  and  _106
REMARK   47  A    between atoms: _106  and  _107
REMARK   48  A    between atoms: _107  and  _108
REMARK   49  A    between atoms: _108  and  _109
REMARK   50  A    between atoms: _113  and  _115
REMARK   51  A    between atoms: _115  and  _116
REMARK   52  A    between atoms: _115  and  _118
REMARK   53  A    between atoms: _118  and  _119
REMARK   54  A    between atoms: _119  and  _120
REMARK   55  A    between atoms: _122  and  _124
REMARK   56  A    between atoms: _124  and  _125
REMARK   57  A    between atoms: _124  and  _127
REMARK   58  A    between atoms: _127  and  _128
REMARK   59  A    between atoms: _131  and  _133
REMARK   60  A    between atoms: _133  and  _134
REMARK   61  A    between atoms: _136  and  _138
REMARK   62  A    between atoms: _138  and  _139
REMARK   63  A    between atoms: _141  and  _143
REMARK   64  A    between atoms: _143  and  _144
REMARK   65  A    between atoms: _143  and  _146
REMARK   66  A    between atoms: _146  and  _147
REMARK   67  A    between atoms: _150  and  _152
REMARK   68  A    between atoms: _152  and  _153
REMARK   69  A    between atoms: _155  and  _157
REMARK   70  A    between atoms: _157  and  _158
REMARK   71  A    between atoms: _160  and  _162
REMARK   72  A    between atoms: _162  and  _163
REMARK   73  A    between atoms: _162  and  _165
REMARK   74  A    between atoms: _165  and  _166
REMARK   75  A    between atoms: _172  and  _174
REMARK   76  A    between atoms: _174  and  _175
REMARK   77  A    between atoms: _174  and  _177
REMARK   78  A    between atoms: _177  and  _178
REMARK   79  A    between atoms: _181  and  _183
REMARK   80  A    between atoms: _183  and  _184
REMARK   81  A    between atoms: _183  and  _186
REMARK   82  A    between atoms: _189  and  _191
REMARK   83  A    between atoms: _191  and  _192
REMARK   84  A    between atoms: _191  and  _194
REMARK   85  A    between atoms: _194  and  _195
REMARK   86  A    between atoms: _198  and  _200
REMARK   87  A    between atoms: _200  and  _201
REMARK   88  A    between atoms: _200  and  _203
REMARK   89  A    between atoms: _203  and  _204
REMARK   90  A    between atoms: _208  and  _209
REMARK   91  A    between atoms: _214  and  _216
REMARK   92  A    between atoms: _216  and  _217
REMARK   93  A    between atoms: _216  and  _219
REMARK   94  A    between atoms: _222  and  _224
REMARK   95  A    between atoms: _224  and  _225
REMARK   96  A    between atoms: _224  and  _227
REMARK   97  A    between atoms: _227  and  _228
REMARK   98  A    between atoms: _233  and  _235
REMARK   99  A    between atoms: _235  and  _236
REMARK  100  A    between atoms: _235  and  _238
REMARK  101  A    between atoms: _241  and  _243
REMARK  102  A    between atoms: _243  and  _244
REMARK  103  A    between atoms: _243  and  _246
REMARK  104  A    between atoms: _246  and  _247
REMARK  105  A    between atoms: _250  and  _252
REMARK  106  A    between atoms: _252  and  _253
REMARK  107  A    between atoms: _255  and  _257
REMARK  108  A    between atoms: _257  and  _258
REMARK  109  A    between atoms: _257  and  _260
REMARK  110  A    between atoms: _260  and  _261
REMARK  111  A    between atoms: _261  and  _262
REMARK  112  A    between atoms: _262  and  _263
REMARK  113  A    between atoms: _272  and  _274
REMARK  114  A    between atoms: _274  and  _275
REMARK  115  A    between atoms: _274  and  _277
REMARK  116  A    between atoms: _277  and  _278
REMARK  117  A    between atoms: _283  and  _285
REMARK  118  A    between atoms: _285  and  _286
REMARK  119  A    between atoms: _285  and  _288
REMARK  120  A    between atoms: _288  and  _289
REMARK  121  A    between atoms: _289  and  _290
REMARK  122  A    between atoms: _290  and  _291
REMARK  123  A    between atoms: _300  and  _302
REMARK  124  A    between atoms: _302  and  _303
REMARK  125  A    between atoms: _302  and  _305
REMARK  126  A    between atoms: _305  and  _306
REMARK  127  A    between atoms: _309  and  _311
REMARK  128  A    between atoms: _311  and  _312
REMARK  129  A    between atoms: _311  and  _314
REMARK  130  A    between atoms: _314  and  _315
REMARK  131  A    between atoms: _318  and  _320
REMARK  132  A    between atoms: _320  and  _321
REMARK  133  A    between atoms: _320  and  _323
REMARK  134  A    between atoms: _323  and  _324
REMARK  135  A    between atoms: _327  and  _329
REMARK  136  A    between atoms: _329  and  _330
REMARK  137  A    between atoms: _329  and  _332
REMARK  138  A    between atoms: _332  and  _333
REMARK  139  A    between atoms: _336  and  _338
REMARK  140  A    between atoms: _338  and  _339
REMARK  141  A    between atoms: _341  and  _343
REMARK  142  A    between atoms: _343  and  _344
REMARK  143  A    between atoms: _347  and  _349
REMARK  144  A    between atoms: _349  and  _350
REMARK  145  A    between atoms: _349  and  _352
REMARK  146  A    between atoms: _352  and  _353
REMARK  147  A    between atoms: _356  and  _358
REMARK  148  A    between atoms: _358  and  _359
REMARK  149  A    between atoms: _358  and  _361
REMARK  150  A    between atoms: _361  and  _362
REMARK  151  A    between atoms: _365  and  _367
REMARK  152  A    between atoms: _367  and  _368
REMARK  153  A    between atoms: _367  and  _370
REMARK  154  A    between atoms: _370  and  _371
REMARK  155  A    between atoms: _374  and  _376
REMARK  156  A    between atoms: _376  and  _377
REMARK  157  A    between atoms: _376  and  _379
REMARK  158  A    between atoms: _382  and  _384
REMARK  159  A    between atoms: _384  and  _385
REMARK  160  A    between atoms: _384  and  _387
REMARK  161  A    between atoms: _387  and  _388
REMARK  162  A    between atoms: _388  and  _389
REMARK  163  A    between atoms: _389  and  _390
REMARK  164  A    between atoms: _390  and  _391
REMARK  165  A    between atoms: _395  and  _397
REMARK  166  A    between atoms: _397  and  _398
REMARK  167  A    between atoms: _397  and  _400
REMARK  168  A    between atoms: _400  and  _401
REMARK  169  A    between atoms: _401  and  _402
REMARK  170  A    between atoms: _404  and  _406
REMARK  171  A    between atoms: _406  and  _407
REMARK  172  A    between atoms: _406  and  _409
REMARK  173  A    between atoms: _409  and  _410
REMARK  174  A    between atoms: _413  and  _415
REMARK  175  A    between atoms: _415  and  _416
REMARK  176  A    between atoms: _418  and  _420
REMARK  177  A    between atoms: _420  and  _421
REMARK  178  A    between atoms: _423  and  _425
REMARK  179  A    between atoms: _425  and  _426
REMARK  180  A    between atoms: _425  and  _428
REMARK  181  A    between atoms: _426  and  _427
REMARK  182  A    between atoms: _426  and  _432
REMARK  183  A    between atoms: _427  and  _592
REMARK  184  A    between atoms: _428  and  _429
REMARK  185  A    between atoms: _432  and  _434
REMARK  186  A    between atoms: _434  and  _435
REMARK  187  A    between atoms: _437  and  _439
REMARK  188  A    between atoms: _439  and  _440
REMARK  189  A    between atoms: _442  and  _444
REMARK  190  A    between atoms: _444  and  _445
REMARK  191  A    between atoms: _444  and  _447
REMARK  192  A    between atoms: _447  and  _448
REMARK  193  A    between atoms: _454  and  _456
REMARK  194  A    between atoms: _456  and  _457
REMARK  195  A    between atoms: _456  and  _459
REMARK  196  A    between atoms: _459  and  _460
REMARK  197  A    between atoms: _463  and  _465
REMARK  198  A    between atoms: _465  and  _466
REMARK  199  A    between atoms: _465  and  _468
REMARK  200  A    between atoms: _468  and  _469
REMARK  201  A    between atoms: _472  and  _474
REMARK  202  A    between atoms: _474  and  _475
REMARK  203  A    between atoms: _474  and  _477
REMARK  204  A    between atoms: _477  and  _478
REMARK  205  A    between atoms: _482  and  _483
REMARK  206  A    between atoms: _488  and  _490
REMARK  207  A    between atoms: _490  and  _491
REMARK  208  A    between atoms: _490  and  _493
REMARK  209  A    between atoms: _496  and  _498
REMARK  210  A    between atoms: _498  and  _499
REMARK  211  A    between atoms: _498  and  _501
REMARK  212  A    between atoms: _501  and  _502
REMARK  213  A    between atoms: _507  and  _509
REMARK  214  A    between atoms: _509  and  _510
REMARK  215  A    between atoms: _509  and  _512
REMARK  216  A    between atoms: _515  and  _517
REMARK  217  A    between atoms: _517  and  _518
REMARK  218  A    between atoms: _517  and  _520
REMARK  219  A    between atoms: _520  and  _521
REMARK  220  A    between atoms: _524  and  _526
REMARK  221  A    between atoms: _526  and  _527
REMARK  222  A    between atoms: _529  and  _531
REMARK  223  A    between atoms: _531  and  _532
REMARK  224  A    between atoms: _531  and  _534
REMARK  225  A    between atoms: _534  and  _535
REMARK  226  A    between atoms: _535  and  _536
REMARK  227  A    between atoms: _536  and  _537
REMARK  228  A    between atoms: _546  and  _548
REMARK  229  A    between atoms: _548  and  _549
REMARK  230  A    between atoms: _548  and  _551
REMARK  231  A    between atoms: _551  and  _552
REMARK                            x       y       z     vdW  Elec       q    Type
REMARK                         _______ _______ _______ _____ _____    ______ ____
ROOT
ATOM      1  O   HOH     1      23.256  28.039  26.027  0.00  0.00    +0.000 OA
ENDROOT
TORSDOF 0
REMARK  Name = ../refined-set-2016/2qd8/2qd8_pocket.pdb
REMARK  231 active torsions:
REMARK  status: ('A' for Active; 'I' for Inactive)
REMARK    1  A    between atoms: _1  and  _3
REMARK    2  A    between atoms: _3  and  _4
REMARK    3  A    between atoms: _3  and  _6
REMARK    4  A    between atoms: _6  and  _7
REMARK    5  A    between atoms: _7  and  _8
REMARK    6  A    between atoms: _8  and  _9
REMARK    7  A    between atoms: _11  and  _15
REMARK    8  A    between atoms: _18  and  _20
REMARK    9  A    between atoms: _20  and  _21
REMARK   10  A    between atoms: _20  and  _23
REMARK   11  A    between atoms: _23  and  _24
REMARK   12  A    between atoms: _27  and  _29
REMARK   13  A    between atoms: _29  and  _30
REMARK   14  A    between atoms: _29  and  _32
REMARK   15  A    between atoms: _32  and  _33
REMARK   16  A    between atoms: _36  and  _38
REMARK   17  A    between atoms: _38  and  _39
REMARK   18  A    between atoms: _38  and  _41
REMARK   19  A    between atoms: _41  and  _42
REMARK   20  A    between atoms: _45  and  _47
REMARK   21  A    between atoms: _47  and  _48
REMARK   22  A    between atoms: _47  and  _50
REMARK   23  A    between atoms: _50  and  _51
REMARK   24  A    between atoms: _54  and  _56
REMARK   25  A    between atoms: _56  and  _57
REMARK   26  A    between atoms: _59  and  _61
REMARK   27  A    between atoms: _61  and  _62
REMARK   28  A    between atoms: _65  and  _67
REMARK   29  A    between atoms: _67  and  _68
REMARK   30  A    between atoms: _67  and  _70
REMARK   31  A    between atoms: _70  and  _71
REMARK   32  A    between atoms: _74  and  _76
REMARK   33  A    between atoms: _76  and  _77
REMARK   34  A    between atoms: _76  and  _79
REMARK   35  A    between atoms: _79  and  _80
REMARK   36  A    between atoms: _83  and  _85
REMARK   37  A    between atoms: _85  and  _86
REMARK   38  A    between atoms: _85  and  _88
REMARK   39  A    between atoms: _88  and  _89
REMARK   40  A    between atoms: _92  and  _94
REMARK   41  A    between atoms: _94  and  _95
REMARK   42  A    between atoms: _94  and  _97
REMARK   43  A    between atoms: _100  and  _102
REMARK   44  A    between atoms: _102  and  _103
REMARK   45  A    between atoms: _102  and  _105
REMARK   46  A    between atoms: _105  and  _106
REMARK   47  A    between atoms: _106  and  _107
REMARK   48  A    between atoms: _107  and  _108
REMARK   49  A    between atoms: _108  and  _109
REMARK   50  A    between atoms: _113  and  _115
REMARK   51  A    between atoms: _115  and  _116
REMARK   52  A    between atoms: _115  and  _118
REMARK   53  A    between atoms: _118  and  _119
REMARK   54  A    between atoms: _119  and  _120
REMARK   55  A    between atoms: _122  and  _124
REMARK   56  A    between atoms: _124  and  _125
REMARK   57  A    between atoms: _124  and  _127
REMARK   58  A    between atoms: _127  and  _128
REMARK   59  A    between atoms: _131  and  _133
REMARK   60  A    between atoms: _133  and  _134
REMARK   61  A    between atoms: _136  and  _138
REMARK   62  A    between atoms: _138  and  _139
REMARK   63  A    between atoms: _141  and  _143
REMARK   64  A    between atoms: _143  and  _144
REMARK   65  A    between atoms: _143  and  _146
REMARK   66  A    between atoms: _146  and  _147
REMARK   67  A    between atoms: _150  and  _152
REMARK   68  A    between atoms: _152  and  _153
REMARK   69  A    between atoms: _155  and  _157
REMARK   70  A    between atoms: _157  and  _158
REMARK   71  A    between atoms: _160  and  _162
REMARK   72  A    between atoms: _162  and  _163
REMARK   73  A    between atoms: _162  and  _165
REMARK   74  A    between atoms: _165  and  _166
REMARK   75  A    between atoms: _172  and  _174
REMARK   76  A    between atoms: _174  and  _175
REMARK   77  A    between atoms: _174  and  _177
REMARK   78  A    between atoms: _177  and  _178
REMARK   79  A    between atoms: _181  and  _183
REMARK   80  A    between atoms: _183  and  _184
REMARK   81  A    between atoms: _183  and  _186
REMARK   82  A    between atoms: _189  and  _191
REMARK   83  A    between atoms: _191  and  _192
REMARK   84  A    between atoms: _191  and  _194
REMARK   85  A    between atoms: _194  and  _195
REMARK   86  A    between atoms: _198  and  _200
REMARK   87  A    between atoms: _200  and  _201
REMARK   88  A    between atoms: _200  and  _203
REMARK   89  A    between atoms: _203  and  _204
REMARK   90  A    between atoms: _208  and  _209
REMARK   91  A    between atoms: _214  and  _216
REMARK   92  A    between atoms: _216  and  _217
REMARK   93  A    between atoms: _216  and  _219
REMARK   94  A    between atoms: _222  and  _224
REMARK   95  A    between atoms: _224  and  _225
REMARK   96  A    between atoms: _224  and  _227
REMARK   97  A    between atoms: _227  and  _228
REMARK   98  A    between atoms: _233  and  _235
REMARK   99  A    between atoms: _235  and  _236
REMARK  100  A    between atoms: _235  and  _238
REMARK  101  A    between atoms: _241  and  _243
REMARK  102  A    between atoms: _243  and  _244
REMARK  103  A    between atoms: _243  and  _246
REMARK  104  A    between atoms: _246  and  _247
REMARK  105  A    between atoms: _250  and  _252
REMARK  106  A    between atoms: _252  and  _253
REMARK  107  A    between atoms: _255  and  _257
REMARK  108  A    between atoms: _257  and  _258
REMARK  109  A    between atoms: _257  and  _260
REMARK  110  A    between atoms: _260  and  _261
REMARK  111  A    between atoms: _261  and  _262
REMARK  112  A    between atoms: _262  and  _263
REMARK  113  A    between atoms: _272  and  _274
REMARK  114  A    between atoms: _274  and  _275
REMARK  115  A    between atoms: _274  and  _277
REMARK  116  A    between atoms: _277  and  _278
REMARK  117  A    between atoms: _283  and  _285
REMARK  118  A    between atoms: _285  and  _286
REMARK  119  A    between atoms: _285  and  _288
REMARK  120  A    between atoms: _288  and  _289
REMARK  121  A    between atoms: _289  and  _290
REMARK  122  A    between atoms: _290  and  _291
REMARK  123  A    between atoms: _300  and  _302
REMARK  124  A    between atoms: _302  and  _303
REMARK  125  A    between atoms: _302  and  _305
REMARK  126  A    between atoms: _305  and  _306
REMARK  127  A    between atoms: _309  and  _311
REMARK  128  A    between atoms: _311  and  _312
REMARK  129  A    between atoms: _311  and  _314
REMARK  130  A    between atoms: _314  and  _315
REMARK  131  A    between atoms: _318  and  _320
REMARK  132  A    between atoms: _320  and  _321
REMARK  133  A    between atoms: _320  and  _323
REMARK  134  A    between atoms: _323  and  _324
REMARK  135  A    between atoms: _327  and  _329
REMARK  136  A    between atoms: _329  and  _330
REMARK  137  A    between atoms: _329  and  _332
REMARK  138  A    between atoms: _332  and  _333
REMARK  139  A    between atoms: _336  and  _338
REMARK  140  A    between atoms: _338  and  _339
REMARK  141  A    between atoms: _341  and  _343
REMARK  142  A    between atoms: _343  and  _344
REMARK  143  A    between atoms: _347  and  _349
REMARK  144  A    between atoms: _349  and  _350
REMARK  145  A    between atoms: _349  and  _352
REMARK  146  A    between atoms: _352  and  _353
REMARK  147  A    between atoms: _356  and  _358
REMARK  148  A    between atoms: _358  and  _359
REMARK  149  A    between atoms: _358  and  _361
REMARK  150  A    between atoms: _361  and  _362
REMARK  151  A    between atoms: _365  and  _367
REMARK  152  A    between atoms: _367  and  _368
REMARK  153  A    between atoms: _367  and  _370
REMARK  154  A    between atoms: _370  and  _371
REMARK  155  A    between atoms: _374  and  _376
REMARK  156  A    between atoms: _376  and  _377
REMARK  157  A    between atoms: _376  and  _379
REMARK  158  A    between atoms: _382  and  _384
REMARK  159  A    between atoms: _384  and  _385
REMARK  160  A    between atoms: _384  and  _387
REMARK  161  A    between atoms: _387  and  _388
REMARK  162  A    between atoms: _388  and  _389
REMARK  163  A    between atoms: _389  and  _390
REMARK  164  A    between atoms: _390  and  _391
REMARK  165  A    between atoms: _395  and  _397
REMARK  166  A    between atoms: _397  and  _398
REMARK  167  A    between atoms: _397  and  _400
REMARK  168  A    between atoms: _400  and  _401
REMARK  169  A    between atoms: _401  and  _402
REMARK  170  A    between atoms: _404  and  _406
REMARK  171  A    between atoms: _406  and  _407
REMARK  172  A    between atoms: _406  and  _409
REMARK  173  A    between atoms: _409  and  _410
REMARK  174  A    between atoms: _413  and  _415
REMARK  175  A    between atoms: _415  and  _416
REMARK  176  A    between atoms: _418  and  _420
REMARK  177  A    between atoms: _420  and  _421
REMARK  178  A    between atoms: _423  and  _425
REMARK  179  A    between atoms: _425  and  _426
REMARK  180  A    between atoms: _425  and  _428
REMARK  181  A    between atoms: _426  and  _427
REMARK  182  A    between atoms: _426  and  _432
REMARK  183  A    between atoms: _427  and  _592
REMARK  184  A    between atoms: _428  and  _429
REMARK  185  A    between atoms: _432  and  _434
REMARK  186  A    between atoms: _434  and  _435
REMARK  187  A    between atoms: _437  and  _439
REMARK  188  A    between atoms: _439  and  _440
REMARK  189  A    between atoms: _442  and  _444
REMARK  190  A    between atoms: _444  and  _445
REMARK  191  A    between atoms: _444  and  _447
REMARK  192  A    between atoms: _447  and  _448
REMARK  193  A    between atoms: _454  and  _456
REMARK  194  A    between atoms: _456  and  _457
REMARK  195  A    between atoms: _456  and  _459
REMARK  196  A    between atoms: _459  and  _460
REMARK  197  A    between atoms: _463  and  _465
REMARK  198  A    between atoms: _465  and  _466
REMARK  199  A    between atoms: _465  and  _468
REMARK  200  A    between atoms: _468  and  _469
REMARK  201  A    between atoms: _472  and  _474
REMARK  202  A    between atoms: _474  and  _475
REMARK  203  A    between atoms: _474  and  _477
REMARK  204  A    between atoms: _477  and  _478
REMARK  205  A    between atoms: _482  and  _483
REMARK  206  A    between atoms: _488  and  _490
REMARK  207  A    between atoms: _490  and  _491
REMARK  208  A    between atoms: _490  and  _493
REMARK  209  A    between atoms: _496  and  _498
REMARK  210  A    between atoms: _498  and  _499
REMARK  211  A    between atoms: _498  and  _501
REMARK  212  A    between atoms: _501  and  _502
REMARK  213  A    between atoms: _507  and  _509
REMARK  214  A    between atoms: _509  and  _510
REMARK  215  A    between atoms: _509  and  _512
REMARK  216  A    between atoms: _515  and  _517
REMARK  217  A    between atoms: _517  and  _518
REMARK  218  A    between atoms: _517  and  _520
REMARK  219  A    between atoms: _520  and  _521
REMARK  220  A    between atoms: _524  and  _526
REMARK  221  A    between atoms: _526  and  _527
REMARK  222  A    between atoms: _529  and  _531
REMARK  223  A    between atoms: _531  and  _532
REMARK  224  A    between atoms: _531  and  _534
REMARK  225  A    between atoms: _534  and  _535
REMARK  226  A    between atoms: _535  and  _536
REMARK  227  A    between atoms: _536  and  _537
REMARK  228  A    between atoms: _546  and  _548
REMARK  229  A    between atoms: _548  and  _549
REMARK  230  A    between atoms: _548  and  _551
REMARK  231  A    between atoms: _551  and  _552
REMARK                            x       y       z     vdW  Elec       q    Type
REMARK                         _______ _______ _______ _____ _____    ______ ____
ROOT
ATOM      1  O   HOH     1      17.149  14.842   9.491  0.00  0.00    +0.000 OA
ENDROOT
TORSDOF 0
REMARK  Name = ../refined-set-2016/2qd8/2qd8_pocket.pdb
REMARK  231 active torsions:
REMARK  status: ('A' for Active; 'I' for Inactive)
REMARK    1  A    between atoms: _1  and  _3
REMARK    2  A    between atoms: _3  and  _4
REMARK    3  A    between atoms: _3  and  _6
REMARK    4  A    between atoms: _6  and  _7
REMARK    5  A    between atoms: _7  and  _8
REMARK    6  A    between atoms: _8  and  _9
REMARK    7  A    between atoms: _11  and  _15
REMARK    8  A    between atoms: _18  and  _20
REMARK    9  A    between atoms: _20  and  _21
REMARK   10  A    between atoms: _20  and  _23
REMARK   11  A    between atoms: _23  and  _24
REMARK   12  A    between atoms: _27  and  _29
REMARK   13  A    between atoms: _29  and  _30
REMARK   14  A    between atoms: _29  and  _32
REMARK   15  A    between atoms: _32  and  _33
REMARK   16  A    between atoms: _36  and  _38
REMARK   17  A    between atoms: _38  and  _39
REMARK   18  A    between atoms: _38  and  _41
REMARK   19  A    between atoms: _41  and  _42
REMARK   20  A    between atoms: _45  and  _47
REMARK   21  A    between atoms: _47  and  _48
REMARK   22  A    between atoms: _47  and  _50
REMARK   23  A    between atoms: _50  and  _51
REMARK   24  A    between atoms: _54  and  _56
REMARK   25  A    between atoms: _56  and  _57
REMARK   26  A    between atoms: _59  and  _61
REMARK   27  A    between atoms: _61  and  _62
REMARK   28  A    between atoms: _65  and  _67
REMARK   29  A    between atoms: _67  and  _68
REMARK   30  A    between atoms: _67  and  _70
REMARK   31  A    between atoms: _70  and  _71
REMARK   32  A    between atoms: _74  and  _76
REMARK   33  A    between atoms: _76  and  _77
REMARK   34  A    between atoms: _76  and  _79
REMARK   35  A    between atoms: _79  and  _80
REMARK   36  A    between atoms: _83  and  _85
REMARK   37  A    between atoms: _85  and  _86
REMARK   38  A    between atoms: _85  and  _88
REMARK   39  A    between atoms: _88  and  _89
REMARK   40  A    between atoms: _92  and  _94
REMARK   41  A    between atoms: _94  and  _95
REMARK   42  A    between atoms: _94  and  _97
REMARK   43  A    between atoms: _100  and  _102
REMARK   44  A    between atoms: _102  and  _103
REMARK   45  A    between atoms: _102  and  _105
REMARK   46  A    between atoms: _105  and  _106
REMARK   47  A    between atoms: _106  and  _107
REMARK   48  A    between atoms: _107  and  _108
REMARK   49  A    between atoms: _108  and  _109
REMARK   50  A    between atoms: _113  and  _115
REMARK   51  A    between atoms: _115  and  _116
REMARK   52  A    between atoms: _115  and  _118
REMARK   53  A    between atoms: _118  and  _119
REMARK   54  A    between atoms: _119  and  _120
REMARK   55  A    between atoms: _122  and  _124
REMARK   56  A    between atoms: _124  and  _125
REMARK   57  A    between atoms: _124  and  _127
REMARK   58  A    between atoms: _127  and  _128
REMARK   59  A    between atoms: _131  and  _133
REMARK   60  A    between atoms: _133  and  _134
REMARK   61  A    between atoms: _136  and  _138
REMARK   62  A    between atoms: _138  and  _139
REMARK   63  A    between atoms: _141  and  _143
REMARK   64  A    between atoms: _143  and  _144
REMARK   65  A    between atoms: _143  and  _146
REMARK   66  A    between atoms: _146  and  _147
REMARK   67  A    between atoms: _150  and  _152
REMARK   68  A    between atoms: _152  and  _153
REMARK   69  A    between atoms: _155  and  _157
REMARK   70  A    between atoms: _157  and  _158
REMARK   71  A    between atoms: _160  and  _162
REMARK   72  A    between atoms: _162  and  _163
REMARK   73  A    between atoms: _162  and  _165
REMARK   74  A    between atoms: _165  and  _166
REMARK   75  A    between atoms: _172  and  _174
REMARK   76  A    between atoms: _174  and  _175
REMARK   77  A    between atoms: _174  and  _177
REMARK   78  A    between atoms: _177  and  _178
REMARK   79  A    between atoms: _181  and  _183
REMARK   80  A    between atoms: _183  and  _184
REMARK   81  A    between atoms: _183  and  _186
REMARK   82  A    between atoms: _189  and  _191
REMARK   83  A    between atoms: _191  and  _192
REMARK   84  A    between atoms: _191  and  _194
REMARK   85  A    between atoms: _194  and  _195
REMARK   86  A    between atoms: _198  and  _200
REMARK   87  A    between atoms: _200  and  _201
REMARK   88  A    between atoms: _200  and  _203
REMARK   89  A    between atoms: _203  and  _204
REMARK   90  A    between atoms: _208  and  _209
REMARK   91  A    between atoms: _214  and  _216
REMARK   92  A    between atoms: _216  and  _217
REMARK   93  A    between atoms: _216  and  _219
REMARK   94  A    between atoms: _222  and  _224
REMARK   95  A    between atoms: _224  and  _225
REMARK   96  A    between atoms: _224  and  _227
REMARK   97  A    between atoms: _227  and  _228
REMARK   98  A    between atoms: _233  and  _235
REMARK   99  A    between atoms: _235  and  _236
REMARK  100  A    between atoms: _235  and  _238
REMARK  101  A    between atoms: _241  and  _243
REMARK  102  A    between atoms: _243  and  _244
REMARK  103  A    between atoms: _243  and  _246
REMARK  104  A    between atoms: _246  and  _247
REMARK  105  A    between atoms: _250  and  _252
REMARK  106  A    between atoms: _252  and  _253
REMARK  107  A    between atoms: _255  and  _257
REMARK  108  A    between atoms: _257  and  _258
REMARK  109  A    between atoms: _257  and  _260
REMARK  110  A    between atoms: _260  and  _261
REMARK  111  A    between atoms: _261  and  _262
REMARK  112  A    between atoms: _262  and  _263
REMARK  113  A    between atoms: _272  and  _274
REMARK  114  A    between atoms: _274  and  _275
REMARK  115  A    between atoms: _274  and  _277
REMARK  116  A    between atoms: _277  and  _278
REMARK  117  A    between atoms: _283  and  _285
REMARK  118  A    between atoms: _285  and  _286
REMARK  119  A    between atoms: _285  and  _288
REMARK  120  A    between atoms: _288  and  _289
REMARK  121  A    between atoms: _289  and  _290
REMARK  122  A    between atoms: _290  and  _291
REMARK  123  A    between atoms: _300  and  _302
REMARK  124  A    between atoms: _302  and  _303
REMARK  125  A    between atoms: _302  and  _305
REMARK  126  A    between atoms: _305  and  _306
REMARK  127  A    between atoms: _309  and  _311
REMARK  128  A    between atoms: _311  and  _312
REMARK  129  A    between atoms: _311  and  _314
REMARK  130  A    between atoms: _314  and  _315
REMARK  131  A    between atoms: _318  and  _320
REMARK  132  A    between atoms: _320  and  _321
REMARK  133  A    between atoms: _320  and  _323
REMARK  134  A    between atoms: _323  and  _324
REMARK  135  A    between atoms: _327  and  _329
REMARK  136  A    between atoms: _329  and  _330
REMARK  137  A    between atoms: _329  and  _332
REMARK  138  A    between atoms: _332  and  _333
REMARK  139  A    between atoms: _336  and  _338
REMARK  140  A    between atoms: _338  and  _339
REMARK  141  A    between atoms: _341  and  _343
REMARK  142  A    between atoms: _343  and  _344
REMARK  143  A    between atoms: _347  and  _349
REMARK  144  A    between atoms: _349  and  _350
REMARK  145  A    between atoms: _349  and  _352
REMARK  146  A    between atoms: _352  and  _353
REMARK  147  A    between atoms: _356  and  _358
REMARK  148  A    between atoms: _358  and  _359
REMARK  149  A    between atoms: _358  and  _361
REMARK  150  A    between atoms: _361  and  _362
REMARK  151  A    between atoms: _365  and  _367
REMARK  152  A    between atoms: _367  and  _368
REMARK  153  A    between atoms: _367  and  _370
REMARK  154  A    between atoms: _370  and  _371
REMARK  155  A    between atoms: _374  and  _376
REMARK  156  A    between atoms: _376  and  _377
REMARK  157  A    between atoms: _376  and  _379
REMARK  158  A    between atoms: _382  and  _384
REMARK  159  A    between atoms: _384  and  _385
REMARK  160  A    between atoms: _384  and  _387
REMARK  161  A    between atoms: _387  and  _388
REMARK  162  A    between atoms: _388  and  _389
REMARK  163  A    between atoms: _389  and  _390
REMARK  164  A    between atoms: _390  and  _391
REMARK  165  A    between atoms: _395  and  _397
REMARK  166  A    between atoms: _397  and  _398
REMARK  167  A    between atoms: _397  and  _400
REMARK  168  A    between atoms: _400  and  _401
REMARK  169  A    between atoms: _401  and  _402
REMARK  170  A    between atoms: _404  and  _406
REMARK  171  A    between atoms: _406  and  _407
REMARK  172  A    between atoms: _406  and  _409
REMARK  173  A    between atoms: _409  and  _410
REMARK  174  A    between atoms: _413  and  _415
REMARK  175  A    between atoms: _415  and  _416
REMARK  176  A    between atoms: _418  and  _420
REMARK  177  A    between atoms: _420  and  _421
REMARK  178  A    between atoms: _423  and  _425
REMARK  179  A    between atoms: _425  and  _426
REMARK  180  A    between atoms: _425  and  _428
REMARK  181  A    between atoms: _426  and  _427
REMARK  182  A    between atoms: _426  and  _432
REMARK  183  A    between atoms: _427  and  _592
REMARK  184  A    between atoms: _428  and  _429
REMARK  185  A    between atoms: _432  and  _434
REMARK  186  A    between atoms: _434  and  _435
REMARK  187  A    between atoms: _437  and  _439
REMARK  188  A    between atoms: _439  and  _440
REMARK  189  A    between atoms: _442  and  _444
REMARK  190  A    between atoms: _444  and  _445
REMARK  191  A    between atoms: _444  and  _447
REMARK  192  A    between atoms: _447  and  _448
REMARK  193  A    between atoms: _454  and  _456
REMARK  194  A    between atoms: _456  and  _457
REMARK  195  A    between atoms: _456  and  _459
REMARK  196  A    between atoms: _459  and  _460
REMARK  197  A    between atoms: _463  and  _465
REMARK  198  A    between atoms: _465  and  _466
REMARK  199  A    between atoms: _465  and  _468
REMARK  200  A    between atoms: _468  and  _469
REMARK  201  A    between atoms: _472  and  _474
REMARK  202  A    between atoms: _474  and  _475
REMARK  203  A    between atoms: _474  and  _477
REMARK  204  A    between atoms: _477  and  _478
REMARK  205  A    between atoms: _482  and  _483
REMARK  206  A    between atoms: _488  and  _490
REMARK  207  A    between atoms: _490  and  _491
REMARK  208  A    between atoms: _490  and  _493
REMARK  209  A    between atoms: _496  and  _498
REMARK  210  A    between atoms: _498  and  _499
REMARK  211  A    between atoms: _498  and  _501
REMARK  212  A    between atoms: _501  and  _502
REMARK  213  A    between atoms: _507  and  _509
REMARK  214  A    between atoms: _509  and  _510
REMARK  215  A    between atoms: _509  and  _512
REMARK  216  A    between atoms: _515  and  _517
REMARK  217  A    between atoms: _517  and  _518
REMARK  218  A    between atoms: _517  and  _520
REMARK  219  A    between atoms: _520  and  _521
REMARK  220  A    between atoms: _524  and  _526
REMARK  221  A    between atoms: _526  and  _527
REMARK  222  A    between atoms: _529  and  _531
REMARK  223  A    between atoms: _531  and  _532
REMARK  224  A    between atoms: _531  and  _534
REMARK  225  A    between atoms: _534  and  _535
REMARK  226  A    between atoms: _535  and  _536
REMARK  227  A    between atoms: _536  and  _537
REMARK  228  A    between atoms: _546  and  _548
REMARK  229  A    between atoms: _548  and  _549
REMARK  230  A    between atoms: _548  and  _551
REMARK  231  A    between atoms: _551  and  _552
REMARK                            x       y       z     vdW  Elec       q    Type
REMARK                         _______ _______ _______ _____ _____    ______ ____
ROOT
ATOM      1  O   HOH     1      10.298  20.065  18.106  0.00  0.00    +0.000 OA
ENDROOT
TORSDOF 0
REMARK  Name = ../refined-set-2016/2qd8/2qd8_pocket.pdb
REMARK  231 active torsions:
REMARK  status: ('A' for Active; 'I' for Inactive)
REMARK    1  A    between atoms: _1  and  _3
REMARK    2  A    between atoms: _3  and  _4
REMARK    3  A    between atoms: _3  and  _6
REMARK    4  A    between atoms: _6  and  _7
REMARK    5  A    between atoms: _7  and  _8
REMARK    6  A    between atoms: _8  and  _9
REMARK    7  A    between atoms: _11  and  _15
REMARK    8  A    between atoms: _18  and  _20
REMARK    9  A    between atoms: _20  and  _21
REMARK   10  A    between atoms: _20  and  _23
REMARK   11  A    between atoms: _23  and  _24
REMARK   12  A    between atoms: _27  and  _29
REMARK   13  A    between atoms: _29  and  _30
REMARK   14  A    between atoms: _29  and  _32
REMARK   15  A    between atoms: _32  and  _33
REMARK   16  A    between atoms: _36  and  _38
REMARK   17  A    between atoms: _38  and  _39
REMARK   18  A    between atoms: _38  and  _41
REMARK   19  A    between atoms: _41  and  _42
REMARK   20  A    between atoms: _45  and  _47
REMARK   21  A    between atoms: _47  and  _48
REMARK   22  A    between atoms: _47  and  _50
REMARK   23  A    between atoms: _50  and  _51
REMARK   24  A    between atoms: _54  and  _56
REMARK   25  A    between atoms: _56  and  _57
REMARK   26  A    between atoms: _59  and  _61
REMARK   27  A    between atoms: _61  and  _62
REMARK   28  A    between atoms: _65  and  _67
REMARK   29  A    between atoms: _67  and  _68
REMARK   30  A    between atoms: _67  and  _70
REMARK   31  A    between atoms: _70  and  _71
REMARK   32  A    between atoms: _74  and  _76
REMARK   33  A    between atoms: _76  and  _77
REMARK   34  A    between atoms: _76  and  _79
REMARK   35  A    between atoms: _79  and  _80
REMARK   36  A    between atoms: _83  and  _85
REMARK   37  A    between atoms: _85  and  _86
REMARK   38  A    between atoms: _85  and  _88
REMARK   39  A    between atoms: _88  and  _89
REMARK   40  A    between atoms: _92  and  _94
REMARK   41  A    between atoms: _94  and  _95
REMARK   42  A    between atoms: _94  and  _97
REMARK   43  A    between atoms: _100  and  _102
REMARK   44  A    between atoms: _102  and  _103
REMARK   45  A    between atoms: _102  and  _105
REMARK   46  A    between atoms: _105  and  _106
REMARK   47  A    between atoms: _106  and  _107
REMARK   48  A    between atoms: _107  and  _108
REMARK   49  A    between atoms: _108  and  _109
REMARK   50  A    between atoms: _113  and  _115
REMARK   51  A    between atoms: _115  and  _116
REMARK   52  A    between atoms: _115  and  _118
REMARK   53  A    between atoms: _118  and  _119
REMARK   54  A    between atoms: _119  and  _120
REMARK   55  A    between atoms: _122  and  _124
REMARK   56  A    between atoms: _124  and  _125
REMARK   57  A    between atoms: _124  and  _127
REMARK   58  A    between atoms: _127  and  _128
REMARK   59  A    between atoms: _131  and  _133
REMARK   60  A    between atoms: _133  and  _134
REMARK   61  A    between atoms: _136  and  _138
REMARK   62  A    between atoms: _138  and  _139
REMARK   63  A    between atoms: _141  and  _143
REMARK   64  A    between atoms: _143  and  _144
REMARK   65  A    between atoms: _143  and  _146
REMARK   66  A    between atoms: _146  and  _147
REMARK   67  A    between atoms: _150  and  _152
REMARK   68  A    between atoms: _152  and  _153
REMARK   69  A    between atoms: _155  and  _157
REMARK   70  A    between atoms: _157  and  _158
REMARK   71  A    between atoms: _160  and  _162
REMARK   72  A    between atoms: _162  and  _163
REMARK   73  A    between atoms: _162  and  _165
REMARK   74  A    between atoms: _165  and  _166
REMARK   75  A    between atoms: _172  and  _174
REMARK   76  A    between atoms: _174  and  _175
REMARK   77  A    between atoms: _174  and  _177
REMARK   78  A    between atoms: _177  and  _178
REMARK   79  A    between atoms: _181  and  _183
REMARK   80  A    between atoms: _183  and  _184
REMARK   81  A    between atoms: _183  and  _186
REMARK   82  A    between atoms: _189  and  _191
REMARK   83  A    between atoms: _191  and  _192
REMARK   84  A    between atoms: _191  and  _194
REMARK   85  A    between atoms: _194  and  _195
REMARK   86  A    between atoms: _198  and  _200
REMARK   87  A    between atoms: _200  and  _201
REMARK   88  A    between atoms: _200  and  _203
REMARK   89  A    between atoms: _203  and  _204
REMARK   90  A    between atoms: _208  and  _209
REMARK   91  A    between atoms: _214  and  _216
REMARK   92  A    between atoms: _216  and  _217
REMARK   93  A    between atoms: _216  and  _219
REMARK   94  A    between atoms: _222  and  _224
REMARK   95  A    between atoms: _224  and  _225
REMARK   96  A    between atoms: _224  and  _227
REMARK   97  A    between atoms: _227  and  _228
REMARK   98  A    between atoms: _233  and  _235
REMARK   99  A    between atoms: _235  and  _236
REMARK  100  A    between atoms: _235  and  _238
REMARK  101  A    between atoms: _241  and  _243
REMARK  102  A    between atoms: _243  and  _244
REMARK  103  A    between atoms: _243  and  _246
REMARK  104  A    between atoms: _246  and  _247
REMARK  105  A    between atoms: _250  and  _252
REMARK  106  A    between atoms: _252  and  _253
REMARK  107  A    between atoms: _255  and  _257
REMARK  108  A    between atoms: _257  and  _258
REMARK  109  A    between atoms: _257  and  _260
REMARK  110  A    between atoms: _260  and  _261
REMARK  111  A    between atoms: _261  and  _262
REMARK  112  A    between atoms: _262  and  _263
REMARK  113  A    between atoms: _272  and  _274
REMARK  114  A    between atoms: _274  and  _275
REMARK  115  A    between atoms: _274  and  _277
REMARK  116  A    between atoms: _277  and  _278
REMARK  117  A    between atoms: _283  and  _285
REMARK  118  A    between atoms: _285  and  _286
REMARK  119  A    between atoms: _285  and  _288
REMARK  120  A    between atoms: _288  and  _289
REMARK  121  A    between atoms: _289  and  _290
REMARK  122  A    between atoms: _290  and  _291
REMARK  123  A    between atoms: _300  and  _302
REMARK  124  A    between atoms: _302  and  _303
REMARK  125  A    between atoms: _302  and  _305
REMARK  126  A    between atoms: _305  and  _306
REMARK  127  A    between atoms: _309  and  _311
REMARK  128  A    between atoms: _311  and  _312
REMARK  129  A    between atoms: _311  and  _314
REMARK  130  A    between atoms: _314  and  _315
REMARK  131  A    between atoms: _318  and  _320
REMARK  132  A    between atoms: _320  and  _321
REMARK  133  A    between atoms: _320  and  _323
REMARK  134  A    between atoms: _323  and  _324
REMARK  135  A    between atoms: _327  and  _329
REMARK  136  A    between atoms: _329  and  _330
REMARK  137  A    between atoms: _329  and  _332
REMARK  138  A    between atoms: _332  and  _333
REMARK  139  A    between atoms: _336  and  _338
REMARK  140  A    between atoms: _338  and  _339
REMARK  141  A    between atoms: _341  and  _343
REMARK  142  A    between atoms: _343  and  _344
REMARK  143  A    between atoms: _347  and  _349
REMARK  144  A    between atoms: _349  and  _350
REMARK  145  A    between atoms: _349  and  _352
REMARK  146  A    between atoms: _352  and  _353
REMARK  147  A    between atoms: _356  and  _358
REMARK  148  A    between atoms: _358  and  _359
REMARK  149  A    between atoms: _358  and  _361
REMARK  150  A    between atoms: _361  and  _362
REMARK  151  A    between atoms: _365  and  _367
REMARK  152  A    between atoms: _367  and  _368
REMARK  153  A    between atoms: _367  and  _370
REMARK  154  A    between atoms: _370  and  _371
REMARK  155  A    between atoms: _374  and  _376
REMARK  156  A    between atoms: _376  and  _377
REMARK  157  A    between atoms: _376  and  _379
REMARK  158  A    between atoms: _382  and  _384
REMARK  159  A    between atoms: _384  and  _385
REMARK  160  A    between atoms: _384  and  _387
REMARK  161  A    between atoms: _387  and  _388
REMARK  162  A    between atoms: _388  and  _389
REMARK  163  A    between atoms: _389  and  _390
REMARK  164  A    between atoms: _390  and  _391
REMARK  165  A    between atoms: _395  and  _397
REMARK  166  A    between atoms: _397  and  _398
REMARK  167  A    between atoms: _397  and  _400
REMARK  168  A    between atoms: _400  and  _401
REMARK  169  A    between atoms: _401  and  _402
REMARK  170  A    between atoms: _404  and  _406
REMARK  171  A    between atoms: _406  and  _407
REMARK  172  A    between atoms: _406  and  _409
REMARK  173  A    between atoms: _409  and  _410
REMARK  174  A    between atoms: _413  and  _415
REMARK  175  A    between atoms: _415  and  _416
REMARK  176  A    between atoms: _418  and  _420
REMARK  177  A    between atoms: _420  and  _421
REMARK  178  A    between atoms: _423  and  _425
REMARK  179  A    between atoms: _425  and  _426
REMARK  180  A    between atoms: _425  and  _428
REMARK  181  A    between atoms: _426  and  _427
REMARK  182  A    between atoms: _426  and  _432
REMARK  183  A    between atoms: _427  and  _592
REMARK  184  A    between atoms: _428  and  _429
REMARK  185  A    between atoms: _432  and  _434
REMARK  186  A    between atoms: _434  and  _435
REMARK  187  A    between atoms: _437  and  _439
REMARK  188  A    between atoms: _439  and  _440
REMARK  189  A    between atoms: _442  and  _444
REMARK  190  A    between atoms: _444  and  _445
REMARK  191  A    between atoms: _444  and  _447
REMARK  192  A    between atoms: _447  and  _448
REMARK  193  A    between atoms: _454  and  _456
REMARK  194  A    between atoms: _456  and  _457
REMARK  195  A    between atoms: _456  and  _459
REMARK  196  A    between atoms: _459  and  _460
REMARK  197  A    between atoms: _463  and  _465
REMARK  198  A    between atoms: _465  and  _466
REMARK  199  A    between atoms: _465  and  _468
REMARK  200  A    between atoms: _468  and  _469
REMARK  201  A    between atoms: _472  and  _474
REMARK  202  A    between atoms: _474  and  _475
REMARK  203  A    between atoms: _474  and  _477
REMARK  204  A    between atoms: _477  and  _478
REMARK  205  A    between atoms: _482  and  _483
REMARK  206  A    between atoms: _488  and  _490
REMARK  207  A    between atoms: _490  and  _491
REMARK  208  A    between atoms: _490  and  _493
REMARK  209  A    between atoms: _496  and  _498
REMARK  210  A    between atoms: _498  and  _499
REMARK  211  A    between atoms: _498  and  _501
REMARK  212  A    between atoms: _501  and  _502
REMARK  213  A    between atoms: _507  and  _509
REMARK  214  A    between atoms: _509  and  _510
REMARK  215  A    between atoms: _509  and  _512
REMARK  216  A    between atoms: _515  and  _517
REMARK  217  A    between atoms: _517  and  _518
REMARK  218  A    between atoms: _517  and  _520
REMARK  219  A    between atoms: _520  and  _521
REMARK  220  A    between atoms: _524  and  _526
REMARK  221  A    between atoms: _526  and  _527
REMARK  222  A    between atoms: _529  and  _531
REMARK  223  A    between atoms: _531  and  _532
REMARK  224  A    between atoms: _531  and  _534
REMARK  225  A    between atoms: _534  and  _535
REMARK  226  A    between atoms: _535  and  _536
REMARK  227  A    between atoms: _536  and  _537
REMARK  228  A    between atoms: _546  and  _548
REMARK  229  A    between atoms: _548  and  _549
REMARK  230  A    between atoms: _548  and  _551
REMARK  231  A    between atoms: _551  and  _552
REMARK                            x       y       z     vdW  Elec       q    Type
REMARK                         _______ _______ _______ _____ _____    ______ ____
ROOT
ATOM      1  O   HOH     1      26.571  22.658  23.433  0.00  0.00    +0.000 OA
ENDROOT
TORSDOF 0
REMARK  Name = ../refined-set-2016/2qd8/2qd8_pocket.pdb
REMARK  231 active torsions:
REMARK  status: ('A' for Active; 'I' for Inactive)
REMARK    1  A    between atoms: _1  and  _3
REMARK    2  A    between atoms: _3  and  _4
REMARK    3  A    between atoms: _3  and  _6
REMARK    4  A    between atoms: _6  and  _7
REMARK    5  A    between atoms: _7  and  _8
REMARK    6  A    between atoms: _8  and  _9
REMARK    7  A    between atoms: _11  and  _15
REMARK    8  A    between atoms: _18  and  _20
REMARK    9  A    between atoms: _20  and  _21
REMARK   10  A    between atoms: _20  and  _23
REMARK   11  A    between atoms: _23  and  _24
REMARK   12  A    between atoms: _27  and  _29
REMARK   13  A    between atoms: _29  and  _30
REMARK   14  A    between atoms: _29  and  _32
REMARK   15  A    between atoms: _32  and  _33
REMARK   16  A    between atoms: _36  and  _38
REMARK   17  A    between atoms: _38  and  _39
REMARK   18  A    between atoms: _38  and  _41
REMARK   19  A    between atoms: _41  and  _42
REMARK   20  A    between atoms: _45  and  _47
REMARK   21  A    between atoms: _47  and  _48
REMARK   22  A    between atoms: _47  and  _50
REMARK   23  A    between atoms: _50  and  _51
REMARK   24  A    between atoms: _54  and  _56
REMARK   25  A    between atoms: _56  and  _57
REMARK   26  A    between atoms: _59  and  _61
REMARK   27  A    between atoms: _61  and  _62
REMARK   28  A    between atoms: _65  and  _67
REMARK   29  A    between atoms: _67  and  _68
REMARK   30  A    between atoms: _67  and  _70
REMARK   31  A    between atoms: _70  and  _71
REMARK   32  A    between atoms: _74  and  _76
REMARK   33  A    between atoms: _76  and  _77
REMARK   34  A    between atoms: _76  and  _79
REMARK   35  A    between atoms: _79  and  _80
REMARK   36  A    between atoms: _83  and  _85
REMARK   37  A    between atoms: _85  and  _86
REMARK   38  A    between atoms: _85  and  _88
REMARK   39  A    between atoms: _88  and  _89
REMARK   40  A    between atoms: _92  and  _94
REMARK   41  A    between atoms: _94  and  _95
REMARK   42  A    between atoms: _94  and  _97
REMARK   43  A    between atoms: _100  and  _102
REMARK   44  A    between atoms: _102  and  _103
REMARK   45  A    between atoms: _102  and  _105
REMARK   46  A    between atoms: _105  and  _106
REMARK   47  A    between atoms: _106  and  _107
REMARK   48  A    between atoms: _107  and  _108
REMARK   49  A    between atoms: _108  and  _109
REMARK   50  A    between atoms: _113  and  _115
REMARK   51  A    between atoms: _115  and  _116
REMARK   52  A    between atoms: _115  and  _118
REMARK   53  A    between atoms: _118  and  _119
REMARK   54  A    between atoms: _119  and  _120
REMARK   55  A    between atoms: _122  and  _124
REMARK   56  A    between atoms: _124  and  _125
REMARK   57  A    between atoms: _124  and  _127
REMARK   58  A    between atoms: _127  and  _128
REMARK   59  A    between atoms: _131  and  _133
REMARK   60  A    between atoms: _133  and  _134
REMARK   61  A    between atoms: _136  and  _138
REMARK   62  A    between atoms: _138  and  _139
REMARK   63  A    between atoms: _141  and  _143
REMARK   64  A    between atoms: _143  and  _144
REMARK   65  A    between atoms: _143  and  _146
REMARK   66  A    between atoms: _146  and  _147
REMARK   67  A    between atoms: _150  and  _152
REMARK   68  A    between atoms: _152  and  _153
REMARK   69  A    between atoms: _155  and  _157
REMARK   70  A    between atoms: _157  and  _158
REMARK   71  A    between atoms: _160  and  _162
REMARK   72  A    between atoms: _162  and  _163
REMARK   73  A    between atoms: _162  and  _165
REMARK   74  A    between atoms: _165  and  _166
REMARK   75  A    between atoms: _172  and  _174
REMARK   76  A    between atoms: _174  and  _175
REMARK   77  A    between atoms: _174  and  _177
REMARK   78  A    between atoms: _177  and  _178
REMARK   79  A    between atoms: _181  and  _183
REMARK   80  A    between atoms: _183  and  _184
REMARK   81  A    between atoms: _183  and  _186
REMARK   82  A    between atoms: _189  and  _191
REMARK   83  A    between atoms: _191  and  _192
REMARK   84  A    between atoms: _191  and  _194
REMARK   85  A    between atoms: _194  and  _195
REMARK   86  A    between atoms: _198  and  _200
REMARK   87  A    between atoms: _200  and  _201
REMARK   88  A    between atoms: _200  and  _203
REMARK   89  A    between atoms: _203  and  _204
REMARK   90  A    between atoms: _208  and  _209
REMARK   91  A    between atoms: _214  and  _216
REMARK   92  A    between atoms: _216  and  _217
REMARK   93  A    between atoms: _216  and  _219
REMARK   94  A    between atoms: _222  and  _224
REMARK   95  A    between atoms: _224  and  _225
REMARK   96  A    between atoms: _224  and  _227
REMARK   97  A    between atoms: _227  and  _228
REMARK   98  A    between atoms: _233  and  _235
REMARK   99  A    between atoms: _235  and  _236
REMARK  100  A    between atoms: _235  and  _238
REMARK  101  A    between atoms: _241  and  _243
REMARK  102  A    between atoms: _243  and  _244
REMARK  103  A    between atoms: _243  and  _246
REMARK  104  A    between atoms: _246  and  _247
REMARK  105  A    between atoms: _250  and  _252
REMARK  106  A    between atoms: _252  and  _253
REMARK  107  A    between atoms: _255  and  _257
REMARK  108  A    between atoms: _257  and  _258
REMARK  109  A    between atoms: _257  and  _260
REMARK  110  A    between atoms: _260  and  _261
REMARK  111  A    between atoms: _261  and  _262
REMARK  112  A    between atoms: _262  and  _263
REMARK  113  A    between atoms: _272  and  _274
REMARK  114  A    between atoms: _274  and  _275
REMARK  115  A    between atoms: _274  and  _277
REMARK  116  A    between atoms: _277  and  _278
REMARK  117  A    between atoms: _283  and  _285
REMARK  118  A    between atoms: _285  and  _286
REMARK  119  A    between atoms: _285  and  _288
REMARK  120  A    between atoms: _288  and  _289
REMARK  121  A    between atoms: _289  and  _290
REMARK  122  A    between atoms: _290  and  _291
REMARK  123  A    between atoms: _300  and  _302
REMARK  124  A    between atoms: _302  and  _303
REMARK  125  A    between atoms: _302  and  _305
REMARK  126  A    between atoms: _305  and  _306
REMARK  127  A    between atoms: _309  and  _311
REMARK  128  A    between atoms: _311  and  _312
REMARK  129  A    between atoms: _311  and  _314
REMARK  130  A    between atoms: _314  and  _315
REMARK  131  A    between atoms: _318  and  _320
REMARK  132  A    between atoms: _320  and  _321
REMARK  133  A    between atoms: _320  and  _323
REMARK  134  A    between atoms: _323  and  _324
REMARK  135  A    between atoms: _327  and  _329
REMARK  136  A    between atoms: _329  and  _330
REMARK  137  A    between atoms: _329  and  _332
REMARK  138  A    between atoms: _332  and  _333
REMARK  139  A    between atoms: _336  and  _338
REMARK  140  A    between atoms: _338  and  _339
REMARK  141  A    between atoms: _341  and  _343
REMARK  142  A    between atoms: _343  and  _344
REMARK  143  A    between atoms: _347  and  _349
REMARK  144  A    between atoms: _349  and  _350
REMARK  145  A    between atoms: _349  and  _352
REMARK  146  A    between atoms: _352  and  _353
REMARK  147  A    between atoms: _356  and  _358
REMARK  148  A    between atoms: _358  and  _359
REMARK  149  A    between atoms: _358  and  _361
REMARK  150  A    between atoms: _361  and  _362
REMARK  151  A    between atoms: _365  and  _367
REMARK  152  A    between atoms: _367  and  _368
REMARK  153  A    between atoms: _367  and  _370
REMARK  154  A    between atoms: _370  and  _371
REMARK  155  A    between atoms: _374  and  _376
REMARK  156  A    between atoms: _376  and  _377
REMARK  157  A    between atoms: _376  and  _379
REMARK  158  A    between atoms: _382  and  _384
REMARK  159  A    between atoms: _384  and  _385
REMARK  160  A    between atoms: _384  and  _387
REMARK  161  A    between atoms: _387  and  _388
REMARK  162  A    between atoms: _388  and  _389
REMARK  163  A    between atoms: _389  and  _390
REMARK  164  A    between atoms: _390  and  _391
REMARK  165  A    between atoms: _395  and  _397
REMARK  166  A    between atoms: _397  and  _398
REMARK  167  A    between atoms: _397  and  _400
REMARK  168  A    between atoms: _400  and  _401
REMARK  169  A    between atoms: _401  and  _402
REMARK  170  A    between atoms: _404  and  _406
REMARK  171  A    between atoms: _406  and  _407
REMARK  172  A    between atoms: _406  and  _409
REMARK  173  A    between atoms: _409  and  _410
REMARK  174  A    between atoms: _413  and  _415
REMARK  175  A    between atoms: _415  and  _416
REMARK  176  A    between atoms: _418  and  _420
REMARK  177  A    between atoms: _420  and  _421
REMARK  178  A    between atoms: _423  and  _425
REMARK  179  A    between atoms: _425  and  _426
REMARK  180  A    between atoms: _425  and  _428
REMARK  181  A    between atoms: _426  and  _427
REMARK  182  A    between atoms: _426  and  _432
REMARK  183  A    between atoms: _427  and  _592
REMARK  184  A    between atoms: _428  and  _429
REMARK  185  A    between atoms: _432  and  _434
REMARK  186  A    between atoms: _434  and  _435
REMARK  187  A    between atoms: _437  and  _439
REMARK  188  A    between atoms: _439  and  _440
REMARK  189  A    between atoms: _442  and  _444
REMARK  190  A    between atoms: _444  and  _445
REMARK  191  A    between atoms: _444  and  _447
REMARK  192  A    between atoms: _447  and  _448
REMARK  193  A    between atoms: _454  and  _456
REMARK  194  A    between atoms: _456  and  _457
REMARK  195  A    between atoms: _456  and  _459
REMARK  196  A    between atoms: _459  and  _460
REMARK  197  A    between atoms: _463  and  _465
REMARK  198  A    between atoms: _465  and  _466
REMARK  199  A    between atoms: _465  and  _468
REMARK  200  A    between atoms: _468  and  _469
REMARK  201  A    between atoms: _472  and  _474
REMARK  202  A    between atoms: _474  and  _475
REMARK  203  A    between atoms: _474  and  _477
REMARK  204  A    between atoms: _477  and  _478
REMARK  205  A    between atoms: _482  and  _483
REMARK  206  A    between atoms: _488  and  _490
REMARK  207  A    between atoms: _490  and  _491
REMARK  208  A    between atoms: _490  and  _493
REMARK  209  A    between atoms: _496  and  _498
REMARK  210  A    between atoms: _498  and  _499
REMARK  211  A    between atoms: _498  and  _501
REMARK  212  A    between atoms: _501  and  _502
REMARK  213  A    between atoms: _507  and  _509
REMARK  214  A    between atoms: _509  and  _510
REMARK  215  A    between atoms: _509  and  _512
REMARK  216  A    between atoms: _515  and  _517
REMARK  217  A    between atoms: _517  and  _518
REMARK  218  A    between atoms: _517  and  _520
REMARK  219  A    between atoms: _520  and  _521
REMARK  220  A    between atoms: _524  and  _526
REMARK  221  A    between atoms: _526  and  _527
REMARK  222  A    between atoms: _529  and  _531
REMARK  223  A    between atoms: _531  and  _532
REMARK  224  A    between atoms: _531  and  _534
REMARK  225  A    between atoms: _534  and  _535
REMARK  226  A    between atoms: _535  and  _536
REMARK  227  A    between atoms: _536  and  _537
REMARK  228  A    between atoms: _546  and  _548
REMARK  229  A    between atoms: _548  and  _549
REMARK  230  A    between atoms: _548  and  _551
REMARK  231  A    between atoms: _551  and  _552
REMARK                            x       y       z     vdW  Elec       q    Type
REMARK                         _______ _______ _______ _____ _____    ______ ____
ROOT
ATOM      1  O   HOH     1       5.738  15.305  20.960  0.00  0.00    +0.000 OA
ENDROOT
TORSDOF 0
REMARK  Name = ../refined-set-2016/2qd8/2qd8_pocket.pdb
REMARK  231 active torsions:
REMARK  status: ('A' for Active; 'I' for Inactive)
REMARK    1  A    between atoms: _1  and  _3
REMARK    2  A    between atoms: _3  and  _4
REMARK    3  A    between atoms: _3  and  _6
REMARK    4  A    between atoms: _6  and  _7
REMARK    5  A    between atoms: _7  and  _8
REMARK    6  A    between atoms: _8  and  _9
REMARK    7  A    between atoms: _11  and  _15
REMARK    8  A    between atoms: _18  and  _20
REMARK    9  A    between atoms: _20  and  _21
REMARK   10  A    between atoms: _20  and  _23
REMARK   11  A    between atoms: _23  and  _24
REMARK   12  A    between atoms: _27  and  _29
REMARK   13  A    between atoms: _29  and  _30
REMARK   14  A    between atoms: _29  and  _32
REMARK   15  A    between atoms: _32  and  _33
REMARK   16  A    between atoms: _36  and  _38
REMARK   17  A    between atoms: _38  and  _39
REMARK   18  A    between atoms: _38  and  _41
REMARK   19  A    between atoms: _41  and  _42
REMARK   20  A    between atoms: _45  and  _47
REMARK   21  A    between atoms: _47  and  _48
REMARK   22  A    between atoms: _47  and  _50
REMARK   23  A    between atoms: _50  and  _51
REMARK   24  A    between atoms: _54  and  _56
REMARK   25  A    between atoms: _56  and  _57
REMARK   26  A    between atoms: _59  and  _61
REMARK   27  A    between atoms: _61  and  _62
REMARK   28  A    between atoms: _65  and  _67
REMARK   29  A    between atoms: _67  and  _68
REMARK   30  A    between atoms: _67  and  _70
REMARK   31  A    between atoms: _70  and  _71
REMARK   32  A    between atoms: _74  and  _76
REMARK   33  A    between atoms: _76  and  _77
REMARK   34  A    between atoms: _76  and  _79
REMARK   35  A    between atoms: _79  and  _80
REMARK   36  A    between atoms: _83  and  _85
REMARK   37  A    between atoms: _85  and  _86
REMARK   38  A    between atoms: _85  and  _88
REMARK   39  A    between atoms: _88  and  _89
REMARK   40  A    between atoms: _92  and  _94
REMARK   41  A    between atoms: _94  and  _95
REMARK   42  A    between atoms: _94  and  _97
REMARK   43  A    between atoms: _100  and  _102
REMARK   44  A    between atoms: _102  and  _103
REMARK   45  A    between atoms: _102  and  _105
REMARK   46  A    between atoms: _105  and  _106
REMARK   47  A    between atoms: _106  and  _107
REMARK   48  A    between atoms: _107  and  _108
REMARK   49  A    between atoms: _108  and  _109
REMARK   50  A    between atoms: _113  and  _115
REMARK   51  A    between atoms: _115  and  _116
REMARK   52  A    between atoms: _115  and  _118
REMARK   53  A    between atoms: _118  and  _119
REMARK   54  A    between atoms: _119  and  _120
REMARK   55  A    between atoms: _122  and  _124
REMARK   56  A    between atoms: _124  and  _125
REMARK   57  A    between atoms: _124  and  _127
REMARK   58  A    between atoms: _127  and  _128
REMARK   59  A    between atoms: _131  and  _133
REMARK   60  A    between atoms: _133  and  _134
REMARK   61  A    between atoms: _136  and  _138
REMARK   62  A    between atoms: _138  and  _139
REMARK   63  A    between atoms: _141  and  _143
REMARK   64  A    between atoms: _143  and  _144
REMARK   65  A    between atoms: _143  and  _146
REMARK   66  A    between atoms: _146  and  _147
REMARK   67  A    between atoms: _150  and  _152
REMARK   68  A    between atoms: _152  and  _153
REMARK   69  A    between atoms: _155  and  _157
REMARK   70  A    between atoms: _157  and  _158
REMARK   71  A    between atoms: _160  and  _162
REMARK   72  A    between atoms: _162  and  _163
REMARK   73  A    between atoms: _162  and  _165
REMARK   74  A    between atoms: _165  and  _166
REMARK   75  A    between atoms: _172  and  _174
REMARK   76  A    between atoms: _174  and  _175
REMARK   77  A    between atoms: _174  and  _177
REMARK   78  A    between atoms: _177  and  _178
REMARK   79  A    between atoms: _181  and  _183
REMARK   80  A    between atoms: _183  and  _184
REMARK   81  A    between atoms: _183  and  _186
REMARK   82  A    between atoms: _189  and  _191
REMARK   83  A    between atoms: _191  and  _192
REMARK   84  A    between atoms: _191  and  _194
REMARK   85  A    between atoms: _194  and  _195
REMARK   86  A    between atoms: _198  and  _200
REMARK   87  A    between atoms: _200  and  _201
REMARK   88  A    between atoms: _200  and  _203
REMARK   89  A    between atoms: _203  and  _204
REMARK   90  A    between atoms: _208  and  _209
REMARK   91  A    between atoms: _214  and  _216
REMARK   92  A    between atoms: _216  and  _217
REMARK   93  A    between atoms: _216  and  _219
REMARK   94  A    between atoms: _222  and  _224
REMARK   95  A    between atoms: _224  and  _225
REMARK   96  A    between atoms: _224  and  _227
REMARK   97  A    between atoms: _227  and  _228
REMARK   98  A    between atoms: _233  and  _235
REMARK   99  A    between atoms: _235  and  _236
REMARK  100  A    between atoms: _235  and  _238
REMARK  101  A    between atoms: _241  and  _243
REMARK  102  A    between atoms: _243  and  _244
REMARK  103  A    between atoms: _243  and  _246
REMARK  104  A    between atoms: _246  and  _247
REMARK  105  A    between atoms: _250  and  _252
REMARK  106  A    between atoms: _252  and  _253
REMARK  107  A    between atoms: _255  and  _257
REMARK  108  A    between atoms: _257  and  _258
REMARK  109  A    between atoms: _257  and  _260
REMARK  110  A    between atoms: _260  and  _261
REMARK  111  A    between atoms: _261  and  _262
REMARK  112  A    between atoms: _262  and  _263
REMARK  113  A    between atoms: _272  and  _274
REMARK  114  A    between atoms: _274  and  _275
REMARK  115  A    between atoms: _274  and  _277
REMARK  116  A    between atoms: _277  and  _278
REMARK  117  A    between atoms: _283  and  _285
REMARK  118  A    between atoms: _285  and  _286
REMARK  119  A    between atoms: _285  and  _288
REMARK  120  A    between atoms: _288  and  _289
REMARK  121  A    between atoms: _289  and  _290
REMARK  122  A    between atoms: _290  and  _291
REMARK  123  A    between atoms: _300  and  _302
REMARK  124  A    between atoms: _302  and  _303
REMARK  125  A    between atoms: _302  and  _305
REMARK  126  A    between atoms: _305  and  _306
REMARK  127  A    between atoms: _309  and  _311
REMARK  128  A    between atoms: _311  and  _312
REMARK  129  A    between atoms: _311  and  _314
REMARK  130  A    between atoms: _314  and  _315
REMARK  131  A    between atoms: _318  and  _320
REMARK  132  A    between atoms: _320  and  _321
REMARK  133  A    between atoms: _320  and  _323
REMARK  134  A    between atoms: _323  and  _324
REMARK  135  A    between atoms: _327  and  _329
REMARK  136  A    between atoms: _329  and  _330
REMARK  137  A    between atoms: _329  and  _332
REMARK  138  A    between atoms: _332  and  _333
REMARK  139  A    between atoms: _336  and  _338
REMARK  140  A    between atoms: _338  and  _339
REMARK  141  A    between atoms: _341  and  _343
REMARK  142  A    between atoms: _343  and  _344
REMARK  143  A    between atoms: _347  and  _349
REMARK  144  A    between atoms: _349  and  _350
REMARK  145  A    between atoms: _349  and  _352
REMARK  146  A    between atoms: _352  and  _353
REMARK  147  A    between atoms: _356  and  _358
REMARK  148  A    between atoms: _358  and  _359
REMARK  149  A    between atoms: _358  and  _361
REMARK  150  A    between atoms: _361  and  _362
REMARK  151  A    between atoms: _365  and  _367
REMARK  152  A    between atoms: _367  and  _368
REMARK  153  A    between atoms: _367  and  _370
REMARK  154  A    between atoms: _370  and  _371
REMARK  155  A    between atoms: _374  and  _376
REMARK  156  A    between atoms: _376  and  _377
REMARK  157  A    between atoms: _376  and  _379
REMARK  158  A    between atoms: _382  and  _384
REMARK  159  A    between atoms: _384  and  _385
REMARK  160  A    between atoms: _384  and  _387
REMARK  161  A    between atoms: _387  and  _388
REMARK  162  A    between atoms: _388  and  _389
REMARK  163  A    between atoms: _389  and  _390
REMARK  164  A    between atoms: _390  and  _391
REMARK  165  A    between atoms: _395  and  _397
REMARK  166  A    between atoms: _397  and  _398
REMARK  167  A    between atoms: _397  and  _400
REMARK  168  A    between atoms: _400  and  _401
REMARK  169  A    between atoms: _401  and  _402
REMARK  170  A    between atoms: _404  and  _406
REMARK  171  A    between atoms: _406  and  _407
REMARK  172  A    between atoms: _406  and  _409
REMARK  173  A    between atoms: _409  and  _410
REMARK  174  A    between atoms: _413  and  _415
REMARK  175  A    between atoms: _415  and  _416
REMARK  176  A    between atoms: _418  and  _420
REMARK  177  A    between atoms: _420  and  _421
REMARK  178  A    between atoms: _423  and  _425
REMARK  179  A    between atoms: _425  and  _426
REMARK  180  A    between atoms: _425  and  _428
REMARK  181  A    between atoms: _426  and  _427
REMARK  182  A    between atoms: _426  and  _432
REMARK  183  A    between atoms: _427  and  _592
REMARK  184  A    between atoms: _428  and  _429
REMARK  185  A    between atoms: _432  and  _434
REMARK  186  A    between atoms: _434  and  _435
REMARK  187  A    between atoms: _437  and  _439
REMARK  188  A    between atoms: _439  and  _440
REMARK  189  A    between atoms: _442  and  _444
REMARK  190  A    between atoms: _444  and  _445
REMARK  191  A    between atoms: _444  and  _447
REMARK  192  A    between atoms: _447  and  _448
REMARK  193  A    between atoms: _454  and  _456
REMARK  194  A    between atoms: _456  and  _457
REMARK  195  A    between atoms: _456  and  _459
REMARK  196  A    between atoms: _459  and  _460
REMARK  197  A    between atoms: _463  and  _465
REMARK  198  A    between atoms: _465  and  _466
REMARK  199  A    between atoms: _465  and  _468
REMARK  200  A    between atoms: _468  and  _469
REMARK  201  A    between atoms: _472  and  _474
REMARK  202  A    between atoms: _474  and  _475
REMARK  203  A    between atoms: _474  and  _477
REMARK  204  A    between atoms: _477  and  _478
REMARK  205  A    between atoms: _482  and  _483
REMARK  206  A    between atoms: _488  and  _490
REMARK  207  A    between atoms: _490  and  _491
REMARK  208  A    between atoms: _490  and  _493
REMARK  209  A    between atoms: _496  and  _498
REMARK  210  A    between atoms: _498  and  _499
REMARK  211  A    between atoms: _498  and  _501
REMARK  212  A    between atoms: _501  and  _502
REMARK  213  A    between atoms: _507  and  _509
REMARK  214  A    between atoms: _509  and  _510
REMARK  215  A    between atoms: _509  and  _512
REMARK  216  A    between atoms: _515  and  _517
REMARK  217  A    between atoms: _517  and  _518
REMARK  218  A    between atoms: _517  and  _520
REMARK  219  A    between atoms: _520  and  _521
REMARK  220  A    between atoms: _524  and  _526
REMARK  221  A    between atoms: _526  and  _527
REMARK  222  A    between atoms: _529  and  _531
REMARK  223  A    between atoms: _531  and  _532
REMARK  224  A    between atoms: _531  and  _534
REMARK  225  A    between atoms: _534  and  _535
REMARK  226  A    between atoms: _535  and  _536
REMARK  227  A    between atoms: _536  and  _537
REMARK  228  A    between atoms: _546  and  _548
REMARK  229  A    between atoms: _548  and  _549
REMARK  230  A    between atoms: _548  and  _551
REMARK  231  A    between atoms: _551  and  _552
REMARK                            x       y       z     vdW  Elec       q    Type
REMARK                         _______ _______ _______ _____ _____    ______ ____
ROOT
ATOM      1  O   HOH     1      12.860  18.739  13.345  0.00  0.00    +0.000 OA
ENDROOT
TORSDOF 0
REMARK  Name = ../refined-set-2016/2qd8/2qd8_pocket.pdb
REMARK  231 active torsions:
REMARK  status: ('A' for Active; 'I' for Inactive)
REMARK    1  A    between atoms: _1  and  _3
REMARK    2  A    between atoms: _3  and  _4
REMARK    3  A    between atoms: _3  and  _6
REMARK    4  A    between atoms: _6  and  _7
REMARK    5  A    between atoms: _7  and  _8
REMARK    6  A    between atoms: _8  and  _9
REMARK    7  A    between atoms: _11  and  _15
REMARK    8  A    between atoms: _18  and  _20
REMARK    9  A    between atoms: _20  and  _21
REMARK   10  A    between atoms: _20  and  _23
REMARK   11  A    between atoms: _23  and  _24
REMARK   12  A    between atoms: _27  and  _29
REMARK   13  A    between atoms: _29  and  _30
REMARK   14  A    between atoms: _29  and  _32
REMARK   15  A    between atoms: _32  and  _33
REMARK   16  A    between atoms: _36  and  _38
REMARK   17  A    between atoms: _38  and  _39
REMARK   18  A    between atoms: _38  and  _41
REMARK   19  A    between atoms: _41  and  _42
REMARK   20  A    between atoms: _45  and  _47
REMARK   21  A    between atoms: _47  and  _48
REMARK   22  A    between atoms: _47  and  _50
REMARK   23  A    between atoms: _50  and  _51
REMARK   24  A    between atoms: _54  and  _56
REMARK   25  A    between atoms: _56  and  _57
REMARK   26  A    between atoms: _59  and  _61
REMARK   27  A    between atoms: _61  and  _62
REMARK   28  A    between atoms: _65  and  _67
REMARK   29  A    between atoms: _67  and  _68
REMARK   30  A    between atoms: _67  and  _70
REMARK   31  A    between atoms: _70  and  _71
REMARK   32  A    between atoms: _74  and  _76
REMARK   33  A    between atoms: _76  and  _77
REMARK   34  A    between atoms: _76  and  _79
REMARK   35  A    between atoms: _79  and  _80
REMARK   36  A    between atoms: _83  and  _85
REMARK   37  A    between atoms: _85  and  _86
REMARK   38  A    between atoms: _85  and  _88
REMARK   39  A    between atoms: _88  and  _89
REMARK   40  A    between atoms: _92  and  _94
REMARK   41  A    between atoms: _94  and  _95
REMARK   42  A    between atoms: _94  and  _97
REMARK   43  A    between atoms: _100  and  _102
REMARK   44  A    between atoms: _102  and  _103
REMARK   45  A    between atoms: _102  and  _105
REMARK   46  A    between atoms: _105  and  _106
REMARK   47  A    between atoms: _106  and  _107
REMARK   48  A    between atoms: _107  and  _108
REMARK   49  A    between atoms: _108  and  _109
REMARK   50  A    between atoms: _113  and  _115
REMARK   51  A    between atoms: _115  and  _116
REMARK   52  A    between atoms: _115  and  _118
REMARK   53  A    between atoms: _118  and  _119
REMARK   54  A    between atoms: _119  and  _120
REMARK   55  A    between atoms: _122  and  _124
REMARK   56  A    between atoms: _124  and  _125
REMARK   57  A    between atoms: _124  and  _127
REMARK   58  A    between atoms: _127  and  _128
REMARK   59  A    between atoms: _131  and  _133
REMARK   60  A    between atoms: _133  and  _134
REMARK   61  A    between atoms: _136  and  _138
REMARK   62  A    between atoms: _138  and  _139
REMARK   63  A    between atoms: _141  and  _143
REMARK   64  A    between atoms: _143  and  _144
REMARK   65  A    between atoms: _143  and  _146
REMARK   66  A    between atoms: _146  and  _147
REMARK   67  A    between atoms: _150  and  _152
REMARK   68  A    between atoms: _152  and  _153
REMARK   69  A    between atoms: _155  and  _157
REMARK   70  A    between atoms: _157  and  _158
REMARK   71  A    between atoms: _160  and  _162
REMARK   72  A    between atoms: _162  and  _163
REMARK   73  A    between atoms: _162  and  _165
REMARK   74  A    between atoms: _165  and  _166
REMARK   75  A    between atoms: _172  and  _174
REMARK   76  A    between atoms: _174  and  _175
REMARK   77  A    between atoms: _174  and  _177
REMARK   78  A    between atoms: _177  and  _178
REMARK   79  A    between atoms: _181  and  _183
REMARK   80  A    between atoms: _183  and  _184
REMARK   81  A    between atoms: _183  and  _186
REMARK   82  A    between atoms: _189  and  _191
REMARK   83  A    between atoms: _191  and  _192
REMARK   84  A    between atoms: _191  and  _194
REMARK   85  A    between atoms: _194  and  _195
REMARK   86  A    between atoms: _198  and  _200
REMARK   87  A    between atoms: _200  and  _201
REMARK   88  A    between atoms: _200  and  _203
REMARK   89  A    between atoms: _203  and  _204
REMARK   90  A    between atoms: _208  and  _209
REMARK   91  A    between atoms: _214  and  _216
REMARK   92  A    between atoms: _216  and  _217
REMARK   93  A    between atoms: _216  and  _219
REMARK   94  A    between atoms: _222  and  _224
REMARK   95  A    between atoms: _224  and  _225
REMARK   96  A    between atoms: _224  and  _227
REMARK   97  A    between atoms: _227  and  _228
REMARK   98  A    between atoms: _233  and  _235
REMARK   99  A    between atoms: _235  and  _236
REMARK  100  A    between atoms: _235  and  _238
REMARK  101  A    between atoms: _241  and  _243
REMARK  102  A    between atoms: _243  and  _244
REMARK  103  A    between atoms: _243  and  _246
REMARK  104  A    between atoms: _246  and  _247
REMARK  105  A    between atoms: _250  and  _252
REMARK  106  A    between atoms: _252  and  _253
REMARK  107  A    between atoms: _255  and  _257
REMARK  108  A    between atoms: _257  and  _258
REMARK  109  A    between atoms: _257  and  _260
REMARK  110  A    between atoms: _260  and  _261
REMARK  111  A    between atoms: _261  and  _262
REMARK  112  A    between atoms: _262  and  _263
REMARK  113  A    between atoms: _272  and  _274
REMARK  114  A    between atoms: _274  and  _275
REMARK  115  A    between atoms: _274  and  _277
REMARK  116  A    between atoms: _277  and  _278
REMARK  117  A    between atoms: _283  and  _285
REMARK  118  A    between atoms: _285  and  _286
REMARK  119  A    between atoms: _285  and  _288
REMARK  120  A    between atoms: _288  and  _289
REMARK  121  A    between atoms: _289  and  _290
REMARK  122  A    between atoms: _290  and  _291
REMARK  123  A    between atoms: _300  and  _302
REMARK  124  A    between atoms: _302  and  _303
REMARK  125  A    between atoms: _302  and  _305
REMARK  126  A    between atoms: _305  and  _306
REMARK  127  A    between atoms: _309  and  _311
REMARK  128  A    between atoms: _311  and  _312
REMARK  129  A    between atoms: _311  and  _314
REMARK  130  A    between atoms: _314  and  _315
REMARK  131  A    between atoms: _318  and  _320
REMARK  132  A    between atoms: _320  and  _321
REMARK  133  A    between atoms: _320  and  _323
REMARK  134  A    between atoms: _323  and  _324
REMARK  135  A    between atoms: _327  and  _329
REMARK  136  A    between atoms: _329  and  _330
REMARK  137  A    between atoms: _329  and  _332
REMARK  138  A    between atoms: _332  and  _333
REMARK  139  A    between atoms: _336  and  _338
REMARK  140  A    between atoms: _338  and  _339
REMARK  141  A    between atoms: _341  and  _343
REMARK  142  A    between atoms: _343  and  _344
REMARK  143  A    between atoms: _347  and  _349
REMARK  144  A    between atoms: _349  and  _350
REMARK  145  A    between atoms: _349  and  _352
REMARK  146  A    between atoms: _352  and  _353
REMARK  147  A    between atoms: _356  and  _358
REMARK  148  A    between atoms: _358  and  _359
REMARK  149  A    between atoms: _358  and  _361
REMARK  150  A    between atoms: _361  and  _362
REMARK  151  A    between atoms: _365  and  _367
REMARK  152  A    between atoms: _367  and  _368
REMARK  153  A    between atoms: _367  and  _370
REMARK  154  A    between atoms: _370  and  _371
REMARK  155  A    between atoms: _374  and  _376
REMARK  156  A    between atoms: _376  and  _377
REMARK  157  A    between atoms: _376  and  _379
REMARK  158  A    between atoms: _382  and  _384
REMARK  159  A    between atoms: _384  and  _385
REMARK  160  A    between atoms: _384  and  _387
REMARK  161  A    between atoms: _387  and  _388
REMARK  162  A    between atoms: _388  and  _389
REMARK  163  A    between atoms: _389  and  _390
REMARK  164  A    between atoms: _390  and  _391
REMARK  165  A    between atoms: _395  and  _397
REMARK  166  A    between atoms: _397  and  _398
REMARK  167  A    between atoms: _397  and  _400
REMARK  168  A    between atoms: _400  and  _401
REMARK  169  A    between atoms: _401  and  _402
REMARK  170  A    between atoms: _404  and  _406
REMARK  171  A    between atoms: _406  and  _407
REMARK  172  A    between atoms: _406  and  _409
REMARK  173  A    between atoms: _409  and  _410
REMARK  174  A    between atoms: _413  and  _415
REMARK  175  A    between atoms: _415  and  _416
REMARK  176  A    between atoms: _418  and  _420
REMARK  177  A    between atoms: _420  and  _421
REMARK  178  A    between atoms: _423  and  _425
REMARK  179  A    between atoms: _425  and  _426
REMARK  180  A    between atoms: _425  and  _428
REMARK  181  A    between atoms: _426  and  _427
REMARK  182  A    between atoms: _426  and  _432
REMARK  183  A    between atoms: _427  and  _592
REMARK  184  A    between atoms: _428  and  _429
REMARK  185  A    between atoms: _432  and  _434
REMARK  186  A    between atoms: _434  and  _435
REMARK  187  A    between atoms: _437  and  _439
REMARK  188  A    between atoms: _439  and  _440
REMARK  189  A    between atoms: _442  and  _444
REMARK  190  A    between atoms: _444  and  _445
REMARK  191  A    between atoms: _444  and  _447
REMARK  192  A    between atoms: _447  and  _448
REMARK  193  A    between atoms: _454  and  _456
REMARK  194  A    between atoms: _456  and  _457
REMARK  195  A    between atoms: _456  and  _459
REMARK  196  A    between atoms: _459  and  _460
REMARK  197  A    between atoms: _463  and  _465
REMARK  198  A    between atoms: _465  and  _466
REMARK  199  A    between atoms: _465  and  _468
REMARK  200  A    between atoms: _468  and  _469
REMARK  201  A    between atoms: _472  and  _474
REMARK  202  A    between atoms: _474  and  _475
REMARK  203  A    between atoms: _474  and  _477
REMARK  204  A    between atoms: _477  and  _478
REMARK  205  A    between atoms: _482  and  _483
REMARK  206  A    between atoms: _488  and  _490
REMARK  207  A    between atoms: _490  and  _491
REMARK  208  A    between atoms: _490  and  _493
REMARK  209  A    between atoms: _496  and  _498
REMARK  210  A    between atoms: _498  and  _499
REMARK  211  A    between atoms: _498  and  _501
REMARK  212  A    between atoms: _501  and  _502
REMARK  213  A    between atoms: _507  and  _509
REMARK  214  A    between atoms: _509  and  _510
REMARK  215  A    between atoms: _509  and  _512
REMARK  216  A    between atoms: _515  and  _517
REMARK  217  A    between atoms: _517  and  _518
REMARK  218  A    between atoms: _517  and  _520
REMARK  219  A    between atoms: _520  and  _521
REMARK  220  A    between atoms: _524  and  _526
REMARK  221  A    between atoms: _526  and  _527
REMARK  222  A    between atoms: _529  and  _531
REMARK  223  A    between atoms: _531  and  _532
REMARK  224  A    between atoms: _531  and  _534
REMARK  225  A    between atoms: _534  and  _535
REMARK  226  A    between atoms: _535  and  _536
REMARK  227  A    between atoms: _536  and  _537
REMARK  228  A    between atoms: _546  and  _548
REMARK  229  A    between atoms: _548  and  _549
REMARK  230  A    between atoms: _548  and  _551
REMARK  231  A    between atoms: _551  and  _552
REMARK                            x       y       z     vdW  Elec       q    Type
REMARK                         _______ _______ _______ _____ _____    ______ ____
ROOT
ATOM      1  O   HOH     1       8.871  14.450  19.156  0.00  0.00    +0.000 OA
ENDROOT
TORSDOF 0
REMARK  Name = ../refined-set-2016/2qd8/2qd8_pocket.pdb
REMARK  231 active torsions:
REMARK  status: ('A' for Active; 'I' for Inactive)
REMARK    1  A    between atoms: _1  and  _3
REMARK    2  A    between atoms: _3  and  _4
REMARK    3  A    between atoms: _3  and  _6
REMARK    4  A    between atoms: _6  and  _7
REMARK    5  A    between atoms: _7  and  _8
REMARK    6  A    between atoms: _8  and  _9
REMARK    7  A    between atoms: _11  and  _15
REMARK    8  A    between atoms: _18  and  _20
REMARK    9  A    between atoms: _20  and  _21
REMARK   10  A    between atoms: _20  and  _23
REMARK   11  A    between atoms: _23  and  _24
REMARK   12  A    between atoms: _27  and  _29
REMARK   13  A    between atoms: _29  and  _30
REMARK   14  A    between atoms: _29  and  _32
REMARK   15  A    between atoms: _32  and  _33
REMARK   16  A    between atoms: _36  and  _38
REMARK   17  A    between atoms: _38  and  _39
REMARK   18  A    between atoms: _38  and  _41
REMARK   19  A    between atoms: _41  and  _42
REMARK   20  A    between atoms: _45  and  _47
REMARK   21  A    between atoms: _47  and  _48
REMARK   22  A    between atoms: _47  and  _50
REMARK   23  A    between atoms: _50  and  _51
REMARK   24  A    between atoms: _54  and  _56
REMARK   25  A    between atoms: _56  and  _57
REMARK   26  A    between atoms: _59  and  _61
REMARK   27  A    between atoms: _61  and  _62
REMARK   28  A    between atoms: _65  and  _67
REMARK   29  A    between atoms: _67  and  _68
REMARK   30  A    between atoms: _67  and  _70
REMARK   31  A    between atoms: _70  and  _71
REMARK   32  A    between atoms: _74  and  _76
REMARK   33  A    between atoms: _76  and  _77
REMARK   34  A    between atoms: _76  and  _79
REMARK   35  A    between atoms: _79  and  _80
REMARK   36  A    between atoms: _83  and  _85
REMARK   37  A    between atoms: _85  and  _86
REMARK   38  A    between atoms: _85  and  _88
REMARK   39  A    between atoms: _88  and  _89
REMARK   40  A    between atoms: _92  and  _94
REMARK   41  A    between atoms: _94  and  _95
REMARK   42  A    between atoms: _94  and  _97
REMARK   43  A    between atoms: _100  and  _102
REMARK   44  A    between atoms: _102  and  _103
REMARK   45  A    between atoms: _102  and  _105
REMARK   46  A    between atoms: _105  and  _106
REMARK   47  A    between atoms: _106  and  _107
REMARK   48  A    between atoms: _107  and  _108
REMARK   49  A    between atoms: _108  and  _109
REMARK   50  A    between atoms: _113  and  _115
REMARK   51  A    between atoms: _115  and  _116
REMARK   52  A    between atoms: _115  and  _118
REMARK   53  A    between atoms: _118  and  _119
REMARK   54  A    between atoms: _119  and  _120
REMARK   55  A    between atoms: _122  and  _124
REMARK   56  A    between atoms: _124  and  _125
REMARK   57  A    between atoms: _124  and  _127
REMARK   58  A    between atoms: _127  and  _128
REMARK   59  A    between atoms: _131  and  _133
REMARK   60  A    between atoms: _133  and  _134
REMARK   61  A    between atoms: _136  and  _138
REMARK   62  A    between atoms: _138  and  _139
REMARK   63  A    between atoms: _141  and  _143
REMARK   64  A    between atoms: _143  and  _144
REMARK   65  A    between atoms: _143  and  _146
REMARK   66  A    between atoms: _146  and  _147
REMARK   67  A    between atoms: _150  and  _152
REMARK   68  A    between atoms: _152  and  _153
REMARK   69  A    between atoms: _155  and  _157
REMARK   70  A    between atoms: _157  and  _158
REMARK   71  A    between atoms: _160  and  _162
REMARK   72  A    between atoms: _162  and  _163
REMARK   73  A    between atoms: _162  and  _165
REMARK   74  A    between atoms: _165  and  _166
REMARK   75  A    between atoms: _172  and  _174
REMARK   76  A    between atoms: _174  and  _175
REMARK   77  A    between atoms: _174  and  _177
REMARK   78  A    between atoms: _177  and  _178
REMARK   79  A    between atoms: _181  and  _183
REMARK   80  A    between atoms: _183  and  _184
REMARK   81  A    between atoms: _183  and  _186
REMARK   82  A    between atoms: _189  and  _191
REMARK   83  A    between atoms: _191  and  _192
REMARK   84  A    between atoms: _191  and  _194
REMARK   85  A    between atoms: _194  and  _195
REMARK   86  A    between atoms: _198  and  _200
REMARK   87  A    between atoms: _200  and  _201
REMARK   88  A    between atoms: _200  and  _203
REMARK   89  A    between atoms: _203  and  _204
REMARK   90  A    between atoms: _208  and  _209
REMARK   91  A    between atoms: _214  and  _216
REMARK   92  A    between atoms: _216  and  _217
REMARK   93  A    between atoms: _216  and  _219
REMARK   94  A    between atoms: _222  and  _224
REMARK   95  A    between atoms: _224  and  _225
REMARK   96  A    between atoms: _224  and  _227
REMARK   97  A    between atoms: _227  and  _228
REMARK   98  A    between atoms: _233  and  _235
REMARK   99  A    between atoms: _235  and  _236
REMARK  100  A    between atoms: _235  and  _238
REMARK  101  A    between atoms: _241  and  _243
REMARK  102  A    between atoms: _243  and  _244
REMARK  103  A    between atoms: _243  and  _246
REMARK  104  A    between atoms: _246  and  _247
REMARK  105  A    between atoms: _250  and  _252
REMARK  106  A    between atoms: _252  and  _253
REMARK  107  A    between atoms: _255  and  _257
REMARK  108  A    between atoms: _257  and  _258
REMARK  109  A    between atoms: _257  and  _260
REMARK  110  A    between atoms: _260  and  _261
REMARK  111  A    between atoms: _261  and  _262
REMARK  112  A    between atoms: _262  and  _263
REMARK  113  A    between atoms: _272  and  _274
REMARK  114  A    between atoms: _274  and  _275
REMARK  115  A    between atoms: _274  and  _277
REMARK  116  A    between atoms: _277  and  _278
REMARK  117  A    between atoms: _283  and  _285
REMARK  118  A    between atoms: _285  and  _286
REMARK  119  A    between atoms: _285  and  _288
REMARK  120  A    between atoms: _288  and  _289
REMARK  121  A    between atoms: _289  and  _290
REMARK  122  A    between atoms: _290  and  _291
REMARK  123  A    between atoms: _300  and  _302
REMARK  124  A    between atoms: _302  and  _303
REMARK  125  A    between atoms: _302  and  _305
REMARK  126  A    between atoms: _305  and  _306
REMARK  127  A    between atoms: _309  and  _311
REMARK  128  A    between atoms: _311  and  _312
REMARK  129  A    between atoms: _311  and  _314
REMARK  130  A    between atoms: _314  and  _315
REMARK  131  A    between atoms: _318  and  _320
REMARK  132  A    between atoms: _320  and  _321
REMARK  133  A    between atoms: _320  and  _323
REMARK  134  A    between atoms: _323  and  _324
REMARK  135  A    between atoms: _327  and  _329
REMARK  136  A    between atoms: _329  and  _330
REMARK  137  A    between atoms: _329  and  _332
REMARK  138  A    between atoms: _332  and  _333
REMARK  139  A    between atoms: _336  and  _338
REMARK  140  A    between atoms: _338  and  _339
REMARK  141  A    between atoms: _341  and  _343
REMARK  142  A    between atoms: _343  and  _344
REMARK  143  A    between atoms: _347  and  _349
REMARK  144  A    between atoms: _349  and  _350
REMARK  145  A    between atoms: _349  and  _352
REMARK  146  A    between atoms: _352  and  _353
REMARK  147  A    between atoms: _356  and  _358
REMARK  148  A    between atoms: _358  and  _359
REMARK  149  A    between atoms: _358  and  _361
REMARK  150  A    between atoms: _361  and  _362
REMARK  151  A    between atoms: _365  and  _367
REMARK  152  A    between atoms: _367  and  _368
REMARK  153  A    between atoms: _367  and  _370
REMARK  154  A    between atoms: _370  and  _371
REMARK  155  A    between atoms: _374  and  _376
REMARK  156  A    between atoms: _376  and  _377
REMARK  157  A    between atoms: _376  and  _379
REMARK  158  A    between atoms: _382  and  _384
REMARK  159  A    between atoms: _384  and  _385
REMARK  160  A    between atoms: _384  and  _387
REMARK  161  A    between atoms: _387  and  _388
REMARK  162  A    between atoms: _388  and  _389
REMARK  163  A    between atoms: _389  and  _390
REMARK  164  A    between atoms: _390  and  _391
REMARK  165  A    between atoms: _395  and  _397
REMARK  166  A    between atoms: _397  and  _398
REMARK  167  A    between atoms: _397  and  _400
REMARK  168  A    between atoms: _400  and  _401
REMARK  169  A    between atoms: _401  and  _402
REMARK  170  A    between atoms: _404  and  _406
REMARK  171  A    between atoms: _406  and  _407
REMARK  172  A    between atoms: _406  and  _409
REMARK  173  A    between atoms: _409  and  _410
REMARK  174  A    between atoms: _413  and  _415
REMARK  175  A    between atoms: _415  and  _416
REMARK  176  A    between atoms: _418  and  _420
REMARK  177  A    between atoms: _420  and  _421
REMARK  178  A    between atoms: _423  and  _425
REMARK  179  A    between atoms: _425  and  _426
REMARK  180  A    between atoms: _425  and  _428
REMARK  181  A    between atoms: _426  and  _427
REMARK  182  A    between atoms: _426  and  _432
REMARK  183  A    between atoms: _427  and  _592
REMARK  184  A    between atoms: _428  and  _429
REMARK  185  A    between atoms: _432  and  _434
REMARK  186  A    between atoms: _434  and  _435
REMARK  187  A    between atoms: _437  and  _439
REMARK  188  A    between atoms: _439  and  _440
REMARK  189  A    between atoms: _442  and  _444
REMARK  190  A    between atoms: _444  and  _445
REMARK  191  A    between atoms: _444  and  _447
REMARK  192  A    between atoms: _447  and  _448
REMARK  193  A    between atoms: _454  and  _456
REMARK  194  A    between atoms: _456  and  _457
REMARK  195  A    between atoms: _456  and  _459
REMARK  196  A    between atoms: _459  and  _460
REMARK  197  A    between atoms: _463  and  _465
REMARK  198  A    between atoms: _465  and  _466
REMARK  199  A    between atoms: _465  and  _468
REMARK  200  A    between atoms: _468  and  _469
REMARK  201  A    between atoms: _472  and  _474
REMARK  202  A    between atoms: _474  and  _475
REMARK  203  A    between atoms: _474  and  _477
REMARK  204  A    between atoms: _477  and  _478
REMARK  205  A    between atoms: _482  and  _483
REMARK  206  A    between atoms: _488  and  _490
REMARK  207  A    between atoms: _490  and  _491
REMARK  208  A    between atoms: _490  and  _493
REMARK  209  A    between atoms: _496  and  _498
REMARK  210  A    between atoms: _498  and  _499
REMARK  211  A    between atoms: _498  and  _501
REMARK  212  A    between atoms: _501  and  _502
REMARK  213  A    between atoms: _507  and  _509
REMARK  214  A    between atoms: _509  and  _510
REMARK  215  A    between atoms: _509  and  _512
REMARK  216  A    between atoms: _515  and  _517
REMARK  217  A    between atoms: _517  and  _518
REMARK  218  A    between atoms: _517  and  _520
REMARK  219  A    between atoms: _520  and  _521
REMARK  220  A    between atoms: _524  and  _526
REMARK  221  A    between atoms: _526  and  _527
REMARK  222  A    between atoms: _529  and  _531
REMARK  223  A    between atoms: _531  and  _532
REMARK  224  A    between atoms: _531  and  _534
REMARK  225  A    between atoms: _534  and  _535
REMARK  226  A    between atoms: _535  and  _536
REMARK  227  A    between atoms: _536  and  _537
REMARK  228  A    between atoms: _546  and  _548
REMARK  229  A    between atoms: _548  and  _549
REMARK  230  A    between atoms: _548  and  _551
REMARK  231  A    between atoms: _551  and  _552
REMARK                            x       y       z     vdW  Elec       q    Type
REMARK                         _______ _______ _______ _____ _____    ______ ____
ROOT
ATOM      1  O   HOH     1      21.876  27.372  22.777  0.00  0.00    +0.000 OA
ENDROOT
TORSDOF 0
REMARK  Name = ../refined-set-2016/2qd8/2qd8_pocket.pdb
REMARK  231 active torsions:
REMARK  status: ('A' for Active; 'I' for Inactive)
REMARK    1  A    between atoms: _1  and  _3
REMARK    2  A    between atoms: _3  and  _4
REMARK    3  A    between atoms: _3  and  _6
REMARK    4  A    between atoms: _6  and  _7
REMARK    5  A    between atoms: _7  and  _8
REMARK    6  A    between atoms: _8  and  _9
REMARK    7  A    between atoms: _11  and  _15
REMARK    8  A    between atoms: _18  and  _20
REMARK    9  A    between atoms: _20  and  _21
REMARK   10  A    between atoms: _20  and  _23
REMARK   11  A    between atoms: _23  and  _24
REMARK   12  A    between atoms: _27  and  _29
REMARK   13  A    between atoms: _29  and  _30
REMARK   14  A    between atoms: _29  and  _32
REMARK   15  A    between atoms: _32  and  _33
REMARK   16  A    between atoms: _36  and  _38
REMARK   17  A    between atoms: _38  and  _39
REMARK   18  A    between atoms: _38  and  _41
REMARK   19  A    between atoms: _41  and  _42
REMARK   20  A    between atoms: _45  and  _47
REMARK   21  A    between atoms: _47  and  _48
REMARK   22  A    between atoms: _47  and  _50
REMARK   23  A    between atoms: _50  and  _51
REMARK   24  A    between atoms: _54  and  _56
REMARK   25  A    between atoms: _56  and  _57
REMARK   26  A    between atoms: _59  and  _61
REMARK   27  A    between atoms: _61  and  _62
REMARK   28  A    between atoms: _65  and  _67
REMARK   29  A    between atoms: _67  and  _68
REMARK   30  A    between atoms: _67  and  _70
REMARK   31  A    between atoms: _70  and  _71
REMARK   32  A    between atoms: _74  and  _76
REMARK   33  A    between atoms: _76  and  _77
REMARK   34  A    between atoms: _76  and  _79
REMARK   35  A    between atoms: _79  and  _80
REMARK   36  A    between atoms: _83  and  _85
REMARK   37  A    between atoms: _85  and  _86
REMARK   38  A    between atoms: _85  and  _88
REMARK   39  A    between atoms: _88  and  _89
REMARK   40  A    between atoms: _92  and  _94
REMARK   41  A    between atoms: _94  and  _95
REMARK   42  A    between atoms: _94  and  _97
REMARK   43  A    between atoms: _100  and  _102
REMARK   44  A    between atoms: _102  and  _103
REMARK   45  A    between atoms: _102  and  _105
REMARK   46  A    between atoms: _105  and  _106
REMARK   47  A    between atoms: _106  and  _107
REMARK   48  A    between atoms: _107  and  _108
REMARK   49  A    between atoms: _108  and  _109
REMARK   50  A    between atoms: _113  and  _115
REMARK   51  A    between atoms: _115  and  _116
REMARK   52  A    between atoms: _115  and  _118
REMARK   53  A    between atoms: _118  and  _119
REMARK   54  A    between atoms: _119  and  _120
REMARK   55  A    between atoms: _122  and  _124
REMARK   56  A    between atoms: _124  and  _125
REMARK   57  A    between atoms: _124  and  _127
REMARK   58  A    between atoms: _127  and  _128
REMARK   59  A    between atoms: _131  and  _133
REMARK   60  A    between atoms: _133  and  _134
REMARK   61  A    between atoms: _136  and  _138
REMARK   62  A    between atoms: _138  and  _139
REMARK   63  A    between atoms: _141  and  _143
REMARK   64  A    between atoms: _143  and  _144
REMARK   65  A    between atoms: _143  and  _146
REMARK   66  A    between atoms: _146  and  _147
REMARK   67  A    between atoms: _150  and  _152
REMARK   68  A    between atoms: _152  and  _153
REMARK   69  A    between atoms: _155  and  _157
REMARK   70  A    between atoms: _157  and  _158
REMARK   71  A    between atoms: _160  and  _162
REMARK   72  A    between atoms: _162  and  _163
REMARK   73  A    between atoms: _162  and  _165
REMARK   74  A    between atoms: _165  and  _166
REMARK   75  A    between atoms: _172  and  _174
REMARK   76  A    between atoms: _174  and  _175
REMARK   77  A    between atoms: _174  and  _177
REMARK   78  A    between atoms: _177  and  _178
REMARK   79  A    between atoms: _181  and  _183
REMARK   80  A    between atoms: _183  and  _184
REMARK   81  A    between atoms: _183  and  _186
REMARK   82  A    between atoms: _189  and  _191
REMARK   83  A    between atoms: _191  and  _192
REMARK   84  A    between atoms: _191  and  _194
REMARK   85  A    between atoms: _194  and  _195
REMARK   86  A    between atoms: _198  and  _200
REMARK   87  A    between atoms: _200  and  _201
REMARK   88  A    between atoms: _200  and  _203
REMARK   89  A    between atoms: _203  and  _204
REMARK   90  A    between atoms: _208  and  _209
REMARK   91  A    between atoms: _214  and  _216
REMARK   92  A    between atoms: _216  and  _217
REMARK   93  A    between atoms: _216  and  _219
REMARK   94  A    between atoms: _222  and  _224
REMARK   95  A    between atoms: _224  and  _225
REMARK   96  A    between atoms: _224  and  _227
REMARK   97  A    between atoms: _227  and  _228
REMARK   98  A    between atoms: _233  and  _235
REMARK   99  A    between atoms: _235  and  _236
REMARK  100  A    between atoms: _235  and  _238
REMARK  101  A    between atoms: _241  and  _243
REMARK  102  A    between atoms: _243  and  _244
REMARK  103  A    between atoms: _243  and  _246
REMARK  104  A    between atoms: _246  and  _247
REMARK  105  A    between atoms: _250  and  _252
REMARK  106  A    between atoms: _252  and  _253
REMARK  107  A    between atoms: _255  and  _257
REMARK  108  A    between atoms: _257  and  _258
REMARK  109  A    between atoms: _257  and  _260
REMARK  110  A    between atoms: _260  and  _261
REMARK  111  A    between atoms: _261  and  _262
REMARK  112  A    between atoms: _262  and  _263
REMARK  113  A    between atoms: _272  and  _274
REMARK  114  A    between atoms: _274  and  _275
REMARK  115  A    between atoms: _274  and  _277
REMARK  116  A    between atoms: _277  and  _278
REMARK  117  A    between atoms: _283  and  _285
REMARK  118  A    between atoms: _285  and  _286
REMARK  119  A    between atoms: _285  and  _288
REMARK  120  A    between atoms: _288  and  _289
REMARK  121  A    between atoms: _289  and  _290
REMARK  122  A    between atoms: _290  and  _291
REMARK  123  A    between atoms: _300  and  _302
REMARK  124  A    between atoms: _302  and  _303
REMARK  125  A    between atoms: _302  and  _305
REMARK  126  A    between atoms: _305  and  _306
REMARK  127  A    between atoms: _309  and  _311
REMARK  128  A    between atoms: _311  and  _312
REMARK  129  A    between atoms: _311  and  _314
REMARK  130  A    between atoms: _314  and  _315
REMARK  131  A    between atoms: _318  and  _320
REMARK  132  A    between atoms: _320  and  _321
REMARK  133  A    between atoms: _320  and  _323
REMARK  134  A    between atoms: _323  and  _324
REMARK  135  A    between atoms: _327  and  _329
REMARK  136  A    between atoms: _329  and  _330
REMARK  137  A    between atoms: _329  and  _332
REMARK  138  A    between atoms: _332  and  _333
REMARK  139  A    between atoms: _336  and  _338
REMARK  140  A    between atoms: _338  and  _339
REMARK  141  A    between atoms: _341  and  _343
REMARK  142  A    between atoms: _343  and  _344
REMARK  143  A    between atoms: _347  and  _349
REMARK  144  A    between atoms: _349  and  _350
REMARK  145  A    between atoms: _349  and  _352
REMARK  146  A    between atoms: _352  and  _353
REMARK  147  A    between atoms: _356  and  _358
REMARK  148  A    between atoms: _358  and  _359
REMARK  149  A    between atoms: _358  and  _361
REMARK  150  A    between atoms: _361  and  _362
REMARK  151  A    between atoms: _365  and  _367
REMARK  152  A    between atoms: _367  and  _368
REMARK  153  A    between atoms: _367  and  _370
REMARK  154  A    between atoms: _370  and  _371
REMARK  155  A    between atoms: _374  and  _376
REMARK  156  A    between atoms: _376  and  _377
REMARK  157  A    between atoms: _376  and  _379
REMARK  158  A    between atoms: _382  and  _384
REMARK  159  A    between atoms: _384  and  _385
REMARK  160  A    between atoms: _384  and  _387
REMARK  161  A    between atoms: _387  and  _388
REMARK  162  A    between atoms: _388  and  _389
REMARK  163  A    between atoms: _389  and  _390
REMARK  164  A    between atoms: _390  and  _391
REMARK  165  A    between atoms: _395  and  _397
REMARK  166  A    between atoms: _397  and  _398
REMARK  167  A    between atoms: _397  and  _400
REMARK  168  A    between atoms: _400  and  _401
REMARK  169  A    between atoms: _401  and  _402
REMARK  170  A    between atoms: _404  and  _406
REMARK  171  A    between atoms: _406  and  _407
REMARK  172  A    between atoms: _406  and  _409
REMARK  173  A    between atoms: _409  and  _410
REMARK  174  A    between atoms: _413  and  _415
REMARK  175  A    between atoms: _415  and  _416
REMARK  176  A    between atoms: _418  and  _420
REMARK  177  A    between atoms: _420  and  _421
REMARK  178  A    between atoms: _423  and  _425
REMARK  179  A    between atoms: _425  and  _426
REMARK  180  A    between atoms: _425  and  _428
REMARK  181  A    between atoms: _426  and  _427
REMARK  182  A    between atoms: _426  and  _432
REMARK  183  A    between atoms: _427  and  _592
REMARK  184  A    between atoms: _428  and  _429
REMARK  185  A    between atoms: _432  and  _434
REMARK  186  A    between atoms: _434  and  _435
REMARK  187  A    between atoms: _437  and  _439
REMARK  188  A    between atoms: _439  and  _440
REMARK  189  A    between atoms: _442  and  _444
REMARK  190  A    between atoms: _444  and  _445
REMARK  191  A    between atoms: _444  and  _447
REMARK  192  A    between atoms: _447  and  _448
REMARK  193  A    between atoms: _454  and  _456
REMARK  194  A    between atoms: _456  and  _457
REMARK  195  A    between atoms: _456  and  _459
REMARK  196  A    between atoms: _459  and  _460
REMARK  197  A    between atoms: _463  and  _465
REMARK  198  A    between atoms: _465  and  _466
REMARK  199  A    between atoms: _465  and  _468
REMARK  200  A    between atoms: _468  and  _469
REMARK  201  A    between atoms: _472  and  _474
REMARK  202  A    between atoms: _474  and  _475
REMARK  203  A    between atoms: _474  and  _477
REMARK  204  A    between atoms: _477  and  _478
REMARK  205  A    between atoms: _482  and  _483
REMARK  206  A    between atoms: _488  and  _490
REMARK  207  A    between atoms: _490  and  _491
REMARK  208  A    between atoms: _490  and  _493
REMARK  209  A    between atoms: _496  and  _498
REMARK  210  A    between atoms: _498  and  _499
REMARK  211  A    between atoms: _498  and  _501
REMARK  212  A    between atoms: _501  and  _502
REMARK  213  A    between atoms: _507  and  _509
REMARK  214  A    between atoms: _509  and  _510
REMARK  215  A    between atoms: _509  and  _512
REMARK  216  A    between atoms: _515  and  _517
REMARK  217  A    between atoms: _517  and  _518
REMARK  218  A    between atoms: _517  and  _520
REMARK  219  A    between atoms: _520  and  _521
REMARK  220  A    between atoms: _524  and  _526
REMARK  221  A    between atoms: _526  and  _527
REMARK  222  A    between atoms: _529  and  _531
REMARK  223  A    between atoms: _531  and  _532
REMARK  224  A    between atoms: _531  and  _534
REMARK  225  A    between atoms: _534  and  _535
REMARK  226  A    between atoms: _535  and  _536
REMARK  227  A    between atoms: _536  and  _537
REMARK  228  A    between atoms: _546  and  _548
REMARK  229  A    between atoms: _548  and  _549
REMARK  230  A    between atoms: _548  and  _551
REMARK  231  A    between atoms: _551  and  _552
REMARK                            x       y       z     vdW  Elec       q    Type
REMARK                         _______ _______ _______ _____ _____    ______ ____
ROOT
ATOM      1  O   HOH     1      20.536  27.956  18.344  0.00  0.00    +0.000 OA
ENDROOT
TORSDOF 0
