REMARK  Name = ../refined-set-2016/4np9/4np9_pocket.pdb
REMARK  113 active torsions:
REMARK  status: ('A' for Active; 'I' for Inactive)
REMARK    1  A    between atoms: _1  and  _3
REMARK    2  A    between atoms: _3  and  _4
REMARK    3  A    between atoms: _3  and  _6
REMARK    4  A    between atoms: _6  and  _7
REMARK    5  A    between atoms: _12  and  _13
REMARK    6  A    between atoms: _15  and  _17
REMARK    7  A    between atoms: _17  and  _18
REMARK    8  A    between atoms: _17  and  _20
REMARK    9  A    between atoms: _23  and  _25
REMARK   10  A    between atoms: _25  and  _26
REMARK   11  A    between atoms: _25  and  _28
REMARK   12  A    between atoms: _28  and  _29
REMARK   13  A    between atoms: _29  and  _30
REMARK   14  A    between atoms: _30  and  _31
REMARK   15  A    between atoms: _31  and  _32
REMARK   16  A    between atoms: _36  and  _38
REMARK   17  A    between atoms: _38  and  _39
REMARK   18  A    between atoms: _38  and  _41
REMARK   19  A    between atoms: _41  and  _42
REMARK   20  A    between atoms: _45  and  _47
REMARK   21  A    between atoms: _47  and  _48
REMARK   22  A    between atoms: _47  and  _50
REMARK   23  A    between atoms: _50  and  _51
REMARK   24  A    between atoms: _56  and  _58
REMARK   25  A    between atoms: _58  and  _59
REMARK   26  A    between atoms: _58  and  _61
REMARK   27  A    between atoms: _61  and  _62
REMARK   28  A    between atoms: _64  and  _66
REMARK   29  A    between atoms: _66  and  _67
REMARK   30  A    between atoms: _66  and  _69
REMARK   31  A    between atoms: _69  and  _70
REMARK   32  A    between atoms: _70  and  _71
REMARK   33  A    between atoms: _71  and  _72
REMARK   34  A    between atoms: _72  and  _73
REMARK   35  A    between atoms: _77  and  _79
REMARK   36  A    between atoms: _79  and  _80
REMARK   37  A    between atoms: _79  and  _82
REMARK   38  A    between atoms: _82  and  _83
REMARK   39  A    between atoms: _88  and  _90
REMARK   40  A    between atoms: _90  and  _91
REMARK   41  A    between atoms: _90  and  _93
REMARK   42  A    between atoms: _93  and  _94
REMARK   43  A    between atoms: _94  and  _95
REMARK   44  A    between atoms: _95  and  _96
REMARK   45  A    between atoms: _96  and  _97
REMARK   46  A    between atoms: _101  and  _103
REMARK   47  A    between atoms: _103  and  _104
REMARK   48  A    between atoms: _103  and  _106
REMARK   49  A    between atoms: _106  and  _107
REMARK   50  A    between atoms: _110  and  _112
REMARK   51  A    between atoms: _112  and  _113
REMARK   52  A    between atoms: _112  and  _115
REMARK   53  A    between atoms: _115  and  _116
REMARK   54  A    between atoms: _116  and  _117
REMARK   55  A    between atoms: _117  and  _118
REMARK   56  A    between atoms: _127  and  _129
REMARK   57  A    between atoms: _129  and  _130
REMARK   58  A    between atoms: _129  and  _132
REMARK   59  A    between atoms: _132  and  _133
REMARK   60  A    between atoms: _136  and  _138
REMARK   61  A    between atoms: _138  and  _139
REMARK   62  A    between atoms: _138  and  _141
REMARK   63  A    between atoms: _141  and  _142
REMARK   64  A    between atoms: _145  and  _147
REMARK   65  A    between atoms: _147  and  _148
REMARK   66  A    between atoms: _147  and  _150
REMARK   67  A    between atoms: _150  and  _151
REMARK   68  A    between atoms: _156  and  _157
REMARK   69  A    between atoms: _159  and  _161
REMARK   70  A    between atoms: _161  and  _162
REMARK   71  A    between atoms: _161  and  _164
REMARK   72  A    between atoms: _164  and  _165
REMARK   73  A    between atoms: _165  and  _166
REMARK   74  A    between atoms: _166  and  _167
REMARK   75  A    between atoms: _176  and  _178
REMARK   76  A    between atoms: _178  and  _179
REMARK   77  A    between atoms: _178  and  _181
REMARK   78  A    between atoms: _181  and  _182
REMARK   79  A    between atoms: _184  and  _186
REMARK   80  A    between atoms: _186  and  _187
REMARK   81  A    between atoms: _186  and  _189
REMARK   82  A    between atoms: _191  and  _193
REMARK   83  A    between atoms: _193  and  _194
REMARK   84  A    between atoms: _193  and  _196
REMARK   85  A    between atoms: _196  and  _197
REMARK   86  A    between atoms: _200  and  _202
REMARK   87  A    between atoms: _202  and  _203
REMARK   88  A    between atoms: _202  and  _205
REMARK   89  A    between atoms: _205  and  _206
REMARK   90  A    between atoms: _206  and  _207
REMARK   91  A    between atoms: _210  and  _212
REMARK   92  A    between atoms: _212  and  _213
REMARK   93  A    between atoms: _212  and  _215
REMARK   94  A    between atoms: _215  and  _216
REMARK   95  A    between atoms: _219  and  _221
REMARK   96  A    between atoms: _221  and  _222
REMARK   97  A    between atoms: _224  and  _226
REMARK   98  A    between atoms: _226  and  _227
REMARK   99  A    between atoms: _226  and  _229
REMARK  100  A    between atoms: _229  and  _230
REMARK  101  A    between atoms: _235  and  _237
REMARK  102  A    between atoms: _237  and  _238
REMARK  103  A    between atoms: _237  and  _240
REMARK  104  A    between atoms: _240  and  _241
REMARK  105  A    between atoms: _246  and  _248
REMARK  106  A    between atoms: _248  and  _249
REMARK  107  A    between atoms: _248  and  _251
REMARK  108  A    between atoms: _251  and  _252
REMARK  109  A    between atoms: _252  and  _253
REMARK  110  A    between atoms: _256  and  _258
REMARK  111  A    between atoms: _258  and  _259
REMARK  112  A    between atoms: _258  and  _261
REMARK  113  A    between atoms: _261  and  _262
REMARK                            x       y       z     vdW  Elec       q    Type
REMARK                         _______ _______ _______ _____ _____    ______ ____
ROOT
ATOM      1  CA  LYS A   3      11.525   6.760  35.131  0.00  0.00    +0.149 C 
ENDROOT
BRANCH   1   4
ATOM      2  C   VAL A   2      12.179   8.985  35.892  0.00  0.00    +0.241 C 
ATOM      3  O   VAL A   2      13.386   8.726  35.876  0.00  0.00    -0.273 OA
ATOM      4  N   LYS A   3      11.230   8.108  35.585  0.00  0.00    -0.297 N 
ATOM      5  H   LYS A   3      10.235   8.398  35.673  0.00  0.00    +0.150 HD
BRANCH   2   6
ATOM      6  CA  VAL A   2      11.687  10.365  36.283  0.00  0.00    +0.148 C 
BRANCH   6   9
ATOM      7  C   TYR A   1      11.827  11.105  38.593  0.00  0.00    +0.239 C 
ATOM      8  O   TYR A   1      10.619  10.959  38.780  0.00  0.00    -0.274 OA
ATOM      9  N   VAL A   2      12.427  10.822  37.446  0.00  0.00    -0.297 N 
ATOM     10  H   VAL A   2      13.459  10.930  37.376  0.00  0.00    +0.150 HD
BRANCH   7  11
ATOM     11  CA  TYR A   1      12.727  11.647  39.691  0.00  0.00    +0.149 C 
BRANCH  11  12
ATOM     12  N   TYR A   1      11.890  12.210  40.738  0.00  0.00    -0.238 NA
ATOM     13  H   TYR A   1      10.957  11.786  40.919  0.00  0.00    +0.142 HD
ENDBRANCH  11  12
BRANCH  11  14
ATOM     14  CB  TYR A   1      13.641  10.549  40.231  0.00  0.00    +0.053 C 
BRANCH  14  15
ATOM     15  CG  TYR A   1      12.920   9.333  40.774  0.00  0.00    -0.020 A 
ATOM     16  CD2 TYR A   1      12.266   9.382  41.996  0.00  0.00    -0.001 A 
ATOM     17  CE2 TYR A   1      11.611   8.278  42.502  0.00  0.00    +0.036 A 
ATOM     18  CZ  TYR A   1      11.612   7.098  41.791  0.00  0.00    +0.134 A 
ATOM     19  CE1 TYR A   1      12.256   7.020  40.570  0.00  0.00    +0.036 A 
ATOM     20  CD1 TYR A   1      12.909   8.134  40.072  0.00  0.00    -0.001 A 
BRANCH  18  21
ATOM     21  OH  TYR A   1      10.958   6.001  42.300  0.00  0.00    -0.506 OA
ATOM     22  HH  TYR A   1      11.603   5.259  42.418  0.00  0.00    +0.292 HD
ENDBRANCH  18  21
ENDBRANCH  14  15
ENDBRANCH  11  14
ENDBRANCH   7  11
ENDBRANCH   6   9
BRANCH   6  23
ATOM     23  CB  VAL A   2      11.840  11.341  35.103  0.00  0.00    +0.027 C 
ATOM     24  CG2 VAL A   2      11.302  12.703  35.487  0.00  0.00    +0.002 C 
ATOM     25  CG1 VAL A   2      11.125  10.816  33.868  0.00  0.00    +0.002 C 
ENDBRANCH   6  23
ENDBRANCH   2   6
ENDBRANCH   1   4
BRANCH   1  26
ATOM     26  C   LYS A   3      11.025   6.556  33.711  0.00  0.00    +0.241 C 
ATOM     27  O   LYS A   3       9.893   6.907  33.387  0.00  0.00    -0.273 OA
ATOM     28  N   LEU A   4      11.883   5.986  32.875  0.00  0.00    -0.297 N 
ATOM     29  H   LEU A   4      12.848   5.786  33.207  0.00  0.00    +0.150 HD
BRANCH  28  30
ATOM     30  CA  LEU A   4      11.524   5.629  31.508  0.00  0.00    +0.149 C 
BRANCH  30  31
ATOM     31  C   LEU A   4      11.327   4.123  31.402  0.00  0.00    +0.241 C 
ATOM     32  O   LEU A   4      12.084   3.357  31.989  0.00  0.00    -0.273 OA
ATOM     33  N   HIS A   5      10.299   3.708  30.669  0.00  0.00    -0.298 N 
ATOM     34  H   HIS A   5       9.627   4.412  30.302  0.00  0.00    +0.150 HD
BRANCH  33  35
ATOM     35  CA  HIS A   5      10.082   2.297  30.361  0.00  0.00    +0.143 C 
BRANCH  35  36
ATOM     36  C   HIS A   5       9.713   2.145  28.889  0.00  0.00    +0.227 C 
ATOM     37  O   HIS A   5       8.849   2.862  28.387  0.00  0.00    -0.286 OA
ENDBRANCH  35  36
BRANCH  35  38
ATOM     38  CB  HIS A   5       8.968   1.697  31.226  0.00  0.00    +0.075 C 
BRANCH  38  39
ATOM     39  CG  HIS A   5       9.299   1.603  32.681  0.00  0.00    +0.082 A 
ATOM     40  CD2 HIS A   5       9.187   2.504  33.685  0.00  0.00    +0.115 A 
ATOM     41  NE2 HIS A   5       9.619   1.887  34.835  0.00  0.00    -0.221 NA
ATOM     42  CE1 HIS A   5       9.977   0.648  34.547  0.00  0.00    +0.199 A 
ATOM     43  ND1 HIS A   5       9.790   0.449  33.255  0.00  0.00    -0.227 NA
ENDBRANCH  38  39
ENDBRANCH  35  38
ENDBRANCH  33  35
ENDBRANCH  30  31
BRANCH  30  44
ATOM     44  CB  LEU A   4      12.611   6.093  30.540  0.00  0.00    +0.029 C 
BRANCH  44  45
ATOM     45  CG  LEU A   4      12.489   7.501  29.958  0.00  0.00    +0.002 C 
ATOM     46  CD2 LEU A   4      12.015   8.512  30.988  0.00  0.00    +0.000 C 
ATOM     47  CD1 LEU A   4      13.825   7.923  29.364  0.00  0.00    +0.000 C 
ENDBRANCH  44  45
ENDBRANCH  30  44
ENDBRANCH  28  30
ENDBRANCH   1  26
BRANCH   1  48
ATOM     48  CB  LYS A   3      10.882   5.729  36.056  0.00  0.00    +0.029 C 
BRANCH  48  49
ATOM     49  CG  LYS A   3      11.527   5.634  37.419  0.00  0.00    +0.000 C 
BRANCH  49  50
ATOM     50  CD  LYS A   3      10.644   4.882  38.384  0.00  0.00    -0.024 C 
BRANCH  50  51
ATOM     51  CE  LYS A   3       9.484   5.732  38.851  0.00  0.00    -0.086 C 
BRANCH  51  52
ATOM     52  NZ  LYS A   3       8.472   4.947  39.604  0.00  0.00    +0.380 N 
ATOM     53  HZ1 LYS A   3       8.918   4.523  40.443  0.00  0.00    -0.089 HD
ATOM     54  HZ2 LYS A   3       7.699   5.575  39.901  0.00  0.00    -0.089 HD
ATOM     55  HZ3 LYS A   3       8.094   4.195  38.993  0.00  0.00    -0.089 HD
ENDBRANCH  51  52
ENDBRANCH  50  51
ENDBRANCH  49  50
ENDBRANCH  48  49
ENDBRANCH   1  48
TORSDOF 23
REMARK  Name = ../refined-set-2016/4np9/4np9_pocket.pdb
REMARK  113 active torsions:
REMARK  status: ('A' for Active; 'I' for Inactive)
REMARK    1  A    between atoms: _1  and  _3
REMARK    2  A    between atoms: _3  and  _4
REMARK    3  A    between atoms: _3  and  _6
REMARK    4  A    between atoms: _6  and  _7
REMARK    5  A    between atoms: _12  and  _13
REMARK    6  A    between atoms: _15  and  _17
REMARK    7  A    between atoms: _17  and  _18
REMARK    8  A    between atoms: _17  and  _20
REMARK    9  A    between atoms: _23  and  _25
REMARK   10  A    between atoms: _25  and  _26
REMARK   11  A    between atoms: _25  and  _28
REMARK   12  A    between atoms: _28  and  _29
REMARK   13  A    between atoms: _29  and  _30
REMARK   14  A    between atoms: _30  and  _31
REMARK   15  A    between atoms: _31  and  _32
REMARK   16  A    between atoms: _36  and  _38
REMARK   17  A    between atoms: _38  and  _39
REMARK   18  A    between atoms: _38  and  _41
REMARK   19  A    between atoms: _41  and  _42
REMARK   20  A    between atoms: _45  and  _47
REMARK   21  A    between atoms: _47  and  _48
REMARK   22  A    between atoms: _47  and  _50
REMARK   23  A    between atoms: _50  and  _51
REMARK   24  A    between atoms: _56  and  _58
REMARK   25  A    between atoms: _58  and  _59
REMARK   26  A    between atoms: _58  and  _61
REMARK   27  A    between atoms: _61  and  _62
REMARK   28  A    between atoms: _64  and  _66
REMARK   29  A    between atoms: _66  and  _67
REMARK   30  A    between atoms: _66  and  _69
REMARK   31  A    between atoms: _69  and  _70
REMARK   32  A    between atoms: _70  and  _71
REMARK   33  A    between atoms: _71  and  _72
REMARK   34  A    between atoms: _72  and  _73
REMARK   35  A    between atoms: _77  and  _79
REMARK   36  A    between atoms: _79  and  _80
REMARK   37  A    between atoms: _79  and  _82
REMARK   38  A    between atoms: _82  and  _83
REMARK   39  A    between atoms: _88  and  _90
REMARK   40  A    between atoms: _90  and  _91
REMARK   41  A    between atoms: _90  and  _93
REMARK   42  A    between atoms: _93  and  _94
REMARK   43  A    between atoms: _94  and  _95
REMARK   44  A    between atoms: _95  and  _96
REMARK   45  A    between atoms: _96  and  _97
REMARK   46  A    between atoms: _101  and  _103
REMARK   47  A    between atoms: _103  and  _104
REMARK   48  A    between atoms: _103  and  _106
REMARK   49  A    between atoms: _106  and  _107
REMARK   50  A    between atoms: _110  and  _112
REMARK   51  A    between atoms: _112  and  _113
REMARK   52  A    between atoms: _112  and  _115
REMARK   53  A    between atoms: _115  and  _116
REMARK   54  A    between atoms: _116  and  _117
REMARK   55  A    between atoms: _117  and  _118
REMARK   56  A    between atoms: _127  and  _129
REMARK   57  A    between atoms: _129  and  _130
REMARK   58  A    between atoms: _129  and  _132
REMARK   59  A    between atoms: _132  and  _133
REMARK   60  A    between atoms: _136  and  _138
REMARK   61  A    between atoms: _138  and  _139
REMARK   62  A    between atoms: _138  and  _141
REMARK   63  A    between atoms: _141  and  _142
REMARK   64  A    between atoms: _145  and  _147
REMARK   65  A    between atoms: _147  and  _148
REMARK   66  A    between atoms: _147  and  _150
REMARK   67  A    between atoms: _150  and  _151
REMARK   68  A    between atoms: _156  and  _157
REMARK   69  A    between atoms: _159  and  _161
REMARK   70  A    between atoms: _161  and  _162
REMARK   71  A    between atoms: _161  and  _164
REMARK   72  A    between atoms: _164  and  _165
REMARK   73  A    between atoms: _165  and  _166
REMARK   74  A    between atoms: _166  and  _167
REMARK   75  A    between atoms: _176  and  _178
REMARK   76  A    between atoms: _178  and  _179
REMARK   77  A    between atoms: _178  and  _181
REMARK   78  A    between atoms: _181  and  _182
REMARK   79  A    between atoms: _184  and  _186
REMARK   80  A    between atoms: _186  and  _187
REMARK   81  A    between atoms: _186  and  _189
REMARK   82  A    between atoms: _191  and  _193
REMARK   83  A    between atoms: _193  and  _194
REMARK   84  A    between atoms: _193  and  _196
REMARK   85  A    between atoms: _196  and  _197
REMARK   86  A    between atoms: _200  and  _202
REMARK   87  A    between atoms: _202  and  _203
REMARK   88  A    between atoms: _202  and  _205
REMARK   89  A    between atoms: _205  and  _206
REMARK   90  A    between atoms: _206  and  _207
REMARK   91  A    between atoms: _210  and  _212
REMARK   92  A    between atoms: _212  and  _213
REMARK   93  A    between atoms: _212  and  _215
REMARK   94  A    between atoms: _215  and  _216
REMARK   95  A    between atoms: _219  and  _221
REMARK   96  A    between atoms: _221  and  _222
REMARK   97  A    between atoms: _224  and  _226
REMARK   98  A    between atoms: _226  and  _227
REMARK   99  A    between atoms: _226  and  _229
REMARK  100  A    between atoms: _229  and  _230
REMARK  101  A    between atoms: _235  and  _237
REMARK  102  A    between atoms: _237  and  _238
REMARK  103  A    between atoms: _237  and  _240
REMARK  104  A    between atoms: _240  and  _241
REMARK  105  A    between atoms: _246  and  _248
REMARK  106  A    between atoms: _248  and  _249
REMARK  107  A    between atoms: _248  and  _251
REMARK  108  A    between atoms: _251  and  _252
REMARK  109  A    between atoms: _252  and  _253
REMARK  110  A    between atoms: _256  and  _258
REMARK  111  A    between atoms: _258  and  _259
REMARK  112  A    between atoms: _258  and  _261
REMARK  113  A    between atoms: _261  and  _262
REMARK                            x       y       z     vdW  Elec       q    Type
REMARK                         _______ _______ _______ _____ _____    ______ ____
ROOT
ATOM      1  CA  LYS A   2      15.216  -4.623  33.658  0.00  0.00    +0.137 C 
ENDROOT
BRANCH   1   3
ATOM      2  C   SER A   1      13.362  -5.379  32.258  0.00  0.00    +0.241 C 
ATOM      3  N   LYS A   2      13.806  -4.909  33.418  0.00  0.00    -0.298 N 
ATOM      4  H   LYS A   2      13.123  -4.739  34.184  0.00  0.00    +0.150 HD
ATOM      5  O   SER A   1      14.088  -5.537  31.270  0.00  0.00    -0.274 OA
BRANCH   2   6
ATOM      6  CA  SER A   1      11.870  -5.713  32.204  0.00  0.00    +0.174 C 
BRANCH   6   7
ATOM      7  N   SER A   1      11.516  -6.268  30.902  0.00  0.00    -0.236 NA
ATOM      8  H   SER A   1      10.778  -5.798  30.340  0.00  0.00    +0.142 HD
ENDBRANCH   6   7
BRANCH   6   9
ATOM      9  CB  SER A   1      11.509  -6.687  33.319  0.00  0.00    +0.163 C 
BRANCH   9  10
ATOM     10  OG  SER A   1      11.716  -6.107  34.594  0.00  0.00    -0.380 OA
ATOM     11  H   SER A   1      11.474  -6.761  35.296  0.00  0.00    +0.211 HD
ENDBRANCH   9  10
ENDBRANCH   6   9
ENDBRANCH   2   6
ENDBRANCH   1   3
BRANCH   1  12
ATOM     12  C   LYS A   2      15.810  -3.663  32.624  0.00  0.00    +0.227 C 
ATOM     13  O   LYS A   2      15.868  -2.453  32.852  0.00  0.00    -0.286 OA
ENDBRANCH   1  12
BRANCH   1  14
ATOM     14  CB  LYS A   2      16.006  -5.932  33.688  0.00  0.00    +0.028 C 
BRANCH  14  15
ATOM     15  CG  LYS A   2      15.635  -6.819  34.867  0.00  0.00    -0.000 C 
BRANCH  15  16
ATOM     16  CD  LYS A   2      16.522  -8.049  34.960  0.00  0.00    -0.024 C 
BRANCH  16  17
ATOM     17  CE  LYS A   2      16.516  -8.631  36.367  0.00  0.00    -0.086 C 
BRANCH  17  18
ATOM     18  NZ  LYS A   2      17.268  -7.773  37.328  0.00  0.00    +0.380 N 
ATOM     19  HZ1 LYS A   2      17.239  -8.206  38.273  0.00  0.00    -0.089 HD
ATOM     20  HZ2 LYS A   2      16.832  -6.830  37.364  0.00  0.00    -0.089 HD
ATOM     21  HZ3 LYS A   2      18.256  -7.688  37.015  0.00  0.00    -0.089 HD
ENDBRANCH  17  18
ENDBRANCH  16  17
ENDBRANCH  15  16
ENDBRANCH  14  15
ENDBRANCH   1  14
TORSDOF 11
REMARK  Name = ../refined-set-2016/4np9/4np9_pocket.pdb
REMARK  113 active torsions:
REMARK  status: ('A' for Active; 'I' for Inactive)
REMARK    1  A    between atoms: _1  and  _3
REMARK    2  A    between atoms: _3  and  _4
REMARK    3  A    between atoms: _3  and  _6
REMARK    4  A    between atoms: _6  and  _7
REMARK    5  A    between atoms: _12  and  _13
REMARK    6  A    between atoms: _15  and  _17
REMARK    7  A    between atoms: _17  and  _18
REMARK    8  A    between atoms: _17  and  _20
REMARK    9  A    between atoms: _23  and  _25
REMARK   10  A    between atoms: _25  and  _26
REMARK   11  A    between atoms: _25  and  _28
REMARK   12  A    between atoms: _28  and  _29
REMARK   13  A    between atoms: _29  and  _30
REMARK   14  A    between atoms: _30  and  _31
REMARK   15  A    between atoms: _31  and  _32
REMARK   16  A    between atoms: _36  and  _38
REMARK   17  A    between atoms: _38  and  _39
REMARK   18  A    between atoms: _38  and  _41
REMARK   19  A    between atoms: _41  and  _42
REMARK   20  A    between atoms: _45  and  _47
REMARK   21  A    between atoms: _47  and  _48
REMARK   22  A    between atoms: _47  and  _50
REMARK   23  A    between atoms: _50  and  _51
REMARK   24  A    between atoms: _56  and  _58
REMARK   25  A    between atoms: _58  and  _59
REMARK   26  A    between atoms: _58  and  _61
REMARK   27  A    between atoms: _61  and  _62
REMARK   28  A    between atoms: _64  and  _66
REMARK   29  A    between atoms: _66  and  _67
REMARK   30  A    between atoms: _66  and  _69
REMARK   31  A    between atoms: _69  and  _70
REMARK   32  A    between atoms: _70  and  _71
REMARK   33  A    between atoms: _71  and  _72
REMARK   34  A    between atoms: _72  and  _73
REMARK   35  A    between atoms: _77  and  _79
REMARK   36  A    between atoms: _79  and  _80
REMARK   37  A    between atoms: _79  and  _82
REMARK   38  A    between atoms: _82  and  _83
REMARK   39  A    between atoms: _88  and  _90
REMARK   40  A    between atoms: _90  and  _91
REMARK   41  A    between atoms: _90  and  _93
REMARK   42  A    between atoms: _93  and  _94
REMARK   43  A    between atoms: _94  and  _95
REMARK   44  A    between atoms: _95  and  _96
REMARK   45  A    between atoms: _96  and  _97
REMARK   46  A    between atoms: _101  and  _103
REMARK   47  A    between atoms: _103  and  _104
REMARK   48  A    between atoms: _103  and  _106
REMARK   49  A    between atoms: _106  and  _107
REMARK   50  A    between atoms: _110  and  _112
REMARK   51  A    between atoms: _112  and  _113
REMARK   52  A    between atoms: _112  and  _115
REMARK   53  A    between atoms: _115  and  _116
REMARK   54  A    between atoms: _116  and  _117
REMARK   55  A    between atoms: _117  and  _118
REMARK   56  A    between atoms: _127  and  _129
REMARK   57  A    between atoms: _129  and  _130
REMARK   58  A    between atoms: _129  and  _132
REMARK   59  A    between atoms: _132  and  _133
REMARK   60  A    between atoms: _136  and  _138
REMARK   61  A    between atoms: _138  and  _139
REMARK   62  A    between atoms: _138  and  _141
REMARK   63  A    between atoms: _141  and  _142
REMARK   64  A    between atoms: _145  and  _147
REMARK   65  A    between atoms: _147  and  _148
REMARK   66  A    between atoms: _147  and  _150
REMARK   67  A    between atoms: _150  and  _151
REMARK   68  A    between atoms: _156  and  _157
REMARK   69  A    between atoms: _159  and  _161
REMARK   70  A    between atoms: _161  and  _162
REMARK   71  A    between atoms: _161  and  _164
REMARK   72  A    between atoms: _164  and  _165
REMARK   73  A    between atoms: _165  and  _166
REMARK   74  A    between atoms: _166  and  _167
REMARK   75  A    between atoms: _176  and  _178
REMARK   76  A    between atoms: _178  and  _179
REMARK   77  A    between atoms: _178  and  _181
REMARK   78  A    between atoms: _181  and  _182
REMARK   79  A    between atoms: _184  and  _186
REMARK   80  A    between atoms: _186  and  _187
REMARK   81  A    between atoms: _186  and  _189
REMARK   82  A    between atoms: _191  and  _193
REMARK   83  A    between atoms: _193  and  _194
REMARK   84  A    between atoms: _193  and  _196
REMARK   85  A    between atoms: _196  and  _197
REMARK   86  A    between atoms: _200  and  _202
REMARK   87  A    between atoms: _202  and  _203
REMARK   88  A    between atoms: _202  and  _205
REMARK   89  A    between atoms: _205  and  _206
REMARK   90  A    between atoms: _206  and  _207
REMARK   91  A    between atoms: _210  and  _212
REMARK   92  A    between atoms: _212  and  _213
REMARK   93  A    between atoms: _212  and  _215
REMARK   94  A    between atoms: _215  and  _216
REMARK   95  A    between atoms: _219  and  _221
REMARK   96  A    between atoms: _221  and  _222
REMARK   97  A    between atoms: _224  and  _226
REMARK   98  A    between atoms: _226  and  _227
REMARK   99  A    between atoms: _226  and  _229
REMARK  100  A    between atoms: _229  and  _230
REMARK  101  A    between atoms: _235  and  _237
REMARK  102  A    between atoms: _237  and  _238
REMARK  103  A    between atoms: _237  and  _240
REMARK  104  A    between atoms: _240  and  _241
REMARK  105  A    between atoms: _246  and  _248
REMARK  106  A    between atoms: _248  and  _249
REMARK  107  A    between atoms: _248  and  _251
REMARK  108  A    between atoms: _251  and  _252
REMARK  109  A    between atoms: _252  and  _253
REMARK  110  A    between atoms: _256  and  _258
REMARK  111  A    between atoms: _258  and  _259
REMARK  112  A    between atoms: _258  and  _261
REMARK  113  A    between atoms: _261  and  _262
REMARK                            x       y       z     vdW  Elec       q    Type
REMARK                         _______ _______ _______ _____ _____    ______ ____
ROOT
ATOM      1  CA  LEU A   3      16.150   4.073  32.712  0.00  0.00    +0.149 C 
ENDROOT
BRANCH   1   4
ATOM      2  C   LYS A   2      15.395   1.781  32.388  0.00  0.00    +0.241 C 
ATOM      3  O   LYS A   2      16.536   1.320  32.445  0.00  0.00    -0.273 OA
ATOM      4  N   LEU A   3      15.134   3.084  32.377  0.00  0.00    -0.297 N 
ATOM      5  H   LEU A   3      14.179   3.406  32.122  0.00  0.00    +0.150 HD
BRANCH   2   6
ATOM      6  CA  LYS A   2      14.184   0.863  32.315  0.00  0.00    +0.149 C 
BRANCH   6   8
ATOM      7  C   ASN A   1      13.715  -0.222  30.186  0.00  0.00    +0.239 C 
ATOM      8  N   LYS A   2      14.351  -0.220  31.353  0.00  0.00    -0.297 N 
ATOM      9  H   LYS A   2      14.984  -1.011  31.586  0.00  0.00    +0.150 HD
ATOM     10  O   ASN A   1      13.074   0.740  29.773  0.00  0.00    -0.274 OA
BRANCH   7  11
ATOM     11  CA  ASN A   1      13.838  -1.490  29.347  0.00  0.00    +0.154 C 
BRANCH  11  12
ATOM     12  N   ASN A   1      14.745  -2.459  29.960  0.00  0.00    -0.238 NA
ATOM     13  H   ASN A   1      14.354  -3.253  30.506  0.00  0.00    +0.142 HD
ENDBRANCH  11  12
BRANCH  11  14
ATOM     14  CB  ASN A   1      12.452  -2.107  29.134  0.00  0.00    +0.111 C 
BRANCH  14  15
ATOM     15  CG  ASN A   1      11.697  -2.314  30.436  0.00  0.00    +0.221 C 
ATOM     16  OD1 ASN A   1      12.269  -2.746  31.435  0.00  0.00    -0.275 OA
ATOM     17  ND2 ASN A   1      10.405  -2.001  30.429  0.00  0.00    -0.329 N 
ATOM     18 HD21 ASN A   1       9.837  -2.119  31.292  0.00  0.00    +0.145 HD
ATOM     19 HD22 ASN A   1       9.962  -1.639  29.560  0.00  0.00    +0.145 HD
ENDBRANCH  14  15
ENDBRANCH  11  14
ENDBRANCH   7  11
ENDBRANCH   6   8
BRANCH   6  20
ATOM     20  CB  LYS A   2      13.902   0.290  33.705  0.00  0.00    +0.029 C 
BRANCH  20  21
ATOM     21  CG  LYS A   2      12.956  -0.884  33.694  0.00  0.00    +0.000 C 
BRANCH  21  22
ATOM     22  CD  LYS A   2      12.545  -1.317  35.077  0.00  0.00    -0.024 C 
BRANCH  22  23
ATOM     23  CE  LYS A   2      11.418  -2.350  34.967  0.00  0.00    -0.086 C 
BRANCH  23  24
ATOM     24  NZ  LYS A   2      10.833  -2.739  36.284  0.00  0.00    +0.380 N 
ATOM     25  HZ1 LYS A   2      11.576  -3.152  36.884  0.00  0.00    -0.089 HD
ATOM     26  HZ2 LYS A   2      10.439  -1.897  36.749  0.00  0.00    -0.089 HD
ATOM     27  HZ3 LYS A   2      10.078  -3.439  36.134  0.00  0.00    -0.089 HD
ENDBRANCH  23  24
ENDBRANCH  22  23
ENDBRANCH  21  22
ENDBRANCH  20  21
ENDBRANCH   6  20
ENDBRANCH   2   6
ENDBRANCH   1   4
BRANCH   1  28
ATOM     28  C   LEU A   3      15.557   5.033  33.731  0.00  0.00    +0.241 C 
ATOM     29  N   ARG A   4      16.414   5.816  34.372  0.00  0.00    -0.297 N 
ATOM     30  H   ARG A   4      17.403   5.857  34.054  0.00  0.00    +0.150 HD
ATOM     31  O   LEU A   3      14.345   5.061  33.928  0.00  0.00    -0.273 OA
BRANCH  29  32
ATOM     32  CA  ARG A   4      15.998   6.620  35.512  0.00  0.00    +0.149 C 
BRANCH  32  33
ATOM     33  C   ARG A   4      16.886   7.848  35.672  0.00  0.00    +0.241 C 
ATOM     34  N   THR A   5      16.268   8.996  35.924  0.00  0.00    -0.296 N 
ATOM     35  H   THR A   5      15.229   9.018  35.953  0.00  0.00    +0.150 HD
ATOM     36  O   ARG A   4      18.105   7.754  35.566  0.00  0.00    -0.273 OA
BRANCH  34  37
ATOM     37  CA  THR A   5      17.012  10.226  36.161  0.00  0.00    +0.164 C 
BRANCH  37  38
ATOM     38  CB  THR A   5      16.141  11.487  35.972  0.00  0.00    +0.136 C 
ATOM     39  CG2 THR A   5      15.518  11.524  34.592  0.00  0.00    +0.034 C 
BRANCH  38  40
ATOM     40  OG1 THR A   5      15.108  11.511  36.968  0.00  0.00    -0.382 OA
ATOM     41  HG1 THR A   5      15.520  11.526  37.868  0.00  0.00    +0.210 HD
ENDBRANCH  38  40
ENDBRANCH  37  38
BRANCH  37  42
ATOM     42  C   THR A   5      17.559  10.254  37.578  0.00  0.00    +0.229 C 
ATOM     43  O   THR A   5      17.237   9.395  38.394  0.00  0.00    -0.286 OA
ENDBRANCH  37  42
ENDBRANCH  34  37
ENDBRANCH  32  33
BRANCH  32  44
ATOM     44  CB  ARG A   4      16.037   5.758  36.773  0.00  0.00    +0.033 C 
BRANCH  44  45
ATOM     45  CG  ARG A   4      15.580   6.430  38.048  0.00  0.00    +0.045 C 
BRANCH  45  46
ATOM     46  CD  ARG A   4      16.256   5.758  39.226  0.00  0.00    +0.174 C 
BRANCH  46  47
ATOM     47  NE  ARG A   4      15.557   5.948  40.492  0.00  0.00    -0.265 N 
ATOM     48  CZ  ARG A   4      15.671   7.029  41.255  0.00  0.00    +0.342 C 
ATOM     49  NH2 ARG A   4      15.005   7.106  42.398  0.00  0.00    -0.292 N 
ATOM     50 HH21 ARG A   4      15.094   7.952  42.996  0.00  0.00    +0.255 HD
ATOM     51 HH22 ARG A   4      14.393   6.320  42.697  0.00  0.00    +0.255 HD
ATOM     52  NH1 ARG A   4      16.440   8.041  40.869  0.00  0.00    -0.292 N 
ATOM     53 HH11 ARG A   4      16.527   8.886  41.469  0.00  0.00    +0.255 HD
ATOM     54 HH12 ARG A   4      16.955   7.988  39.967  0.00  0.00    +0.255 HD
ATOM     55  HE  ARG A   4      14.928   5.187  40.819  0.00  0.00    +0.259 HD
ENDBRANCH  46  47
ENDBRANCH  45  46
ENDBRANCH  44  45
ENDBRANCH  32  44
ENDBRANCH  29  32
ENDBRANCH   1  28
BRANCH   1  56
ATOM     56  CB  LEU A   3      16.634   4.818  31.471  0.00  0.00    +0.029 C 
BRANCH  56  57
ATOM     57  CG  LEU A   3      17.326   3.928  30.435  0.00  0.00    +0.002 C 
ATOM     58  CD2 LEU A   3      18.670   3.425  30.948  0.00  0.00    +0.000 C 
ATOM     59  CD1 LEU A   3      17.499   4.684  29.136  0.00  0.00    +0.000 C 
ENDBRANCH  56  57
ENDBRANCH   1  56
TORSDOF 25
REMARK  Name = ../refined-set-2016/4np9/4np9_pocket.pdb
REMARK  113 active torsions:
REMARK  status: ('A' for Active; 'I' for Inactive)
REMARK    1  A    between atoms: _1  and  _3
REMARK    2  A    between atoms: _3  and  _4
REMARK    3  A    between atoms: _3  and  _6
REMARK    4  A    between atoms: _6  and  _7
REMARK    5  A    between atoms: _12  and  _13
REMARK    6  A    between atoms: _15  and  _17
REMARK    7  A    between atoms: _17  and  _18
REMARK    8  A    between atoms: _17  and  _20
REMARK    9  A    between atoms: _23  and  _25
REMARK   10  A    between atoms: _25  and  _26
REMARK   11  A    between atoms: _25  and  _28
REMARK   12  A    between atoms: _28  and  _29
REMARK   13  A    between atoms: _29  and  _30
REMARK   14  A    between atoms: _30  and  _31
REMARK   15  A    between atoms: _31  and  _32
REMARK   16  A    between atoms: _36  and  _38
REMARK   17  A    between atoms: _38  and  _39
REMARK   18  A    between atoms: _38  and  _41
REMARK   19  A    between atoms: _41  and  _42
REMARK   20  A    between atoms: _45  and  _47
REMARK   21  A    between atoms: _47  and  _48
REMARK   22  A    between atoms: _47  and  _50
REMARK   23  A    between atoms: _50  and  _51
REMARK   24  A    between atoms: _56  and  _58
REMARK   25  A    between atoms: _58  and  _59
REMARK   26  A    between atoms: _58  and  _61
REMARK   27  A    between atoms: _61  and  _62
REMARK   28  A    between atoms: _64  and  _66
REMARK   29  A    between atoms: _66  and  _67
REMARK   30  A    between atoms: _66  and  _69
REMARK   31  A    between atoms: _69  and  _70
REMARK   32  A    between atoms: _70  and  _71
REMARK   33  A    between atoms: _71  and  _72
REMARK   34  A    between atoms: _72  and  _73
REMARK   35  A    between atoms: _77  and  _79
REMARK   36  A    between atoms: _79  and  _80
REMARK   37  A    between atoms: _79  and  _82
REMARK   38  A    between atoms: _82  and  _83
REMARK   39  A    between atoms: _88  and  _90
REMARK   40  A    between atoms: _90  and  _91
REMARK   41  A    between atoms: _90  and  _93
REMARK   42  A    between atoms: _93  and  _94
REMARK   43  A    between atoms: _94  and  _95
REMARK   44  A    between atoms: _95  and  _96
REMARK   45  A    between atoms: _96  and  _97
REMARK   46  A    between atoms: _101  and  _103
REMARK   47  A    between atoms: _103  and  _104
REMARK   48  A    between atoms: _103  and  _106
REMARK   49  A    between atoms: _106  and  _107
REMARK   50  A    between atoms: _110  and  _112
REMARK   51  A    between atoms: _112  and  _113
REMARK   52  A    between atoms: _112  and  _115
REMARK   53  A    between atoms: _115  and  _116
REMARK   54  A    between atoms: _116  and  _117
REMARK   55  A    between atoms: _117  and  _118
REMARK   56  A    between atoms: _127  and  _129
REMARK   57  A    between atoms: _129  and  _130
REMARK   58  A    between atoms: _129  and  _132
REMARK   59  A    between atoms: _132  and  _133
REMARK   60  A    between atoms: _136  and  _138
REMARK   61  A    between atoms: _138  and  _139
REMARK   62  A    between atoms: _138  and  _141
REMARK   63  A    between atoms: _141  and  _142
REMARK   64  A    between atoms: _145  and  _147
REMARK   65  A    between atoms: _147  and  _148
REMARK   66  A    between atoms: _147  and  _150
REMARK   67  A    between atoms: _150  and  _151
REMARK   68  A    between atoms: _156  and  _157
REMARK   69  A    between atoms: _159  and  _161
REMARK   70  A    between atoms: _161  and  _162
REMARK   71  A    between atoms: _161  and  _164
REMARK   72  A    between atoms: _164  and  _165
REMARK   73  A    between atoms: _165  and  _166
REMARK   74  A    between atoms: _166  and  _167
REMARK   75  A    between atoms: _176  and  _178
REMARK   76  A    between atoms: _178  and  _179
REMARK   77  A    between atoms: _178  and  _181
REMARK   78  A    between atoms: _181  and  _182
REMARK   79  A    between atoms: _184  and  _186
REMARK   80  A    between atoms: _186  and  _187
REMARK   81  A    between atoms: _186  and  _189
REMARK   82  A    between atoms: _191  and  _193
REMARK   83  A    between atoms: _193  and  _194
REMARK   84  A    between atoms: _193  and  _196
REMARK   85  A    between atoms: _196  and  _197
REMARK   86  A    between atoms: _200  and  _202
REMARK   87  A    between atoms: _202  and  _203
REMARK   88  A    between atoms: _202  and  _205
REMARK   89  A    between atoms: _205  and  _206
REMARK   90  A    between atoms: _206  and  _207
REMARK   91  A    between atoms: _210  and  _212
REMARK   92  A    between atoms: _212  and  _213
REMARK   93  A    between atoms: _212  and  _215
REMARK   94  A    between atoms: _215  and  _216
REMARK   95  A    between atoms: _219  and  _221
REMARK   96  A    between atoms: _221  and  _222
REMARK   97  A    between atoms: _224  and  _226
REMARK   98  A    between atoms: _226  and  _227
REMARK   99  A    between atoms: _226  and  _229
REMARK  100  A    between atoms: _229  and  _230
REMARK  101  A    between atoms: _235  and  _237
REMARK  102  A    between atoms: _237  and  _238
REMARK  103  A    between atoms: _237  and  _240
REMARK  104  A    between atoms: _240  and  _241
REMARK  105  A    between atoms: _246  and  _248
REMARK  106  A    between atoms: _248  and  _249
REMARK  107  A    between atoms: _248  and  _251
REMARK  108  A    between atoms: _251  and  _252
REMARK  109  A    between atoms: _252  and  _253
REMARK  110  A    between atoms: _256  and  _258
REMARK  111  A    between atoms: _258  and  _259
REMARK  112  A    between atoms: _258  and  _261
REMARK  113  A    between atoms: _261  and  _262
REMARK                            x       y       z     vdW  Elec       q    Type
REMARK                         _______ _______ _______ _____ _____    ______ ____
ROOT
ATOM      1  CA  THR A   1      16.585  12.257  42.237  0.00  0.00    +0.160 C 
ENDROOT
BRANCH   1   2
ATOM      2  N   THR A   1      17.627  11.792  41.339  0.00  0.00    -0.237 NA
ATOM      3  H   THR A   1      18.457  11.307  41.735  0.00  0.00    +0.142 HD
ENDBRANCH   1   2
BRANCH   1   4
ATOM      4  CB  THR A   1      16.344  11.264  43.381  0.00  0.00    +0.134 C 
ATOM      5  CG2 THR A   1      15.148  11.691  44.222  0.00  0.00    +0.034 C 
BRANCH   4   6
ATOM      6  OG1 THR A   1      16.105   9.963  42.839  0.00  0.00    -0.383 OA
ATOM      7  HG1 THR A   1      15.950   9.322  43.578  0.00  0.00    +0.210 HD
ENDBRANCH   4   6
ENDBRANCH   1   4
BRANCH   1   8
ATOM      8  C   THR A   1      16.982  13.612  42.805  0.00  0.00    +0.227 C 
ATOM      9  O   THR A   1      18.070  13.766  43.361  0.00  0.00    -0.287 OA
ENDBRANCH   1   8
TORSDOF 4
REMARK  Name = ../refined-set-2016/4np9/4np9_pocket.pdb
REMARK  113 active torsions:
REMARK  status: ('A' for Active; 'I' for Inactive)
REMARK    1  A    between atoms: _1  and  _3
REMARK    2  A    between atoms: _3  and  _4
REMARK    3  A    between atoms: _3  and  _6
REMARK    4  A    between atoms: _6  and  _7
REMARK    5  A    between atoms: _12  and  _13
REMARK    6  A    between atoms: _15  and  _17
REMARK    7  A    between atoms: _17  and  _18
REMARK    8  A    between atoms: _17  and  _20
REMARK    9  A    between atoms: _23  and  _25
REMARK   10  A    between atoms: _25  and  _26
REMARK   11  A    between atoms: _25  and  _28
REMARK   12  A    between atoms: _28  and  _29
REMARK   13  A    between atoms: _29  and  _30
REMARK   14  A    between atoms: _30  and  _31
REMARK   15  A    between atoms: _31  and  _32
REMARK   16  A    between atoms: _36  and  _38
REMARK   17  A    between atoms: _38  and  _39
REMARK   18  A    between atoms: _38  and  _41
REMARK   19  A    between atoms: _41  and  _42
REMARK   20  A    between atoms: _45  and  _47
REMARK   21  A    between atoms: _47  and  _48
REMARK   22  A    between atoms: _47  and  _50
REMARK   23  A    between atoms: _50  and  _51
REMARK   24  A    between atoms: _56  and  _58
REMARK   25  A    between atoms: _58  and  _59
REMARK   26  A    between atoms: _58  and  _61
REMARK   27  A    between atoms: _61  and  _62
REMARK   28  A    between atoms: _64  and  _66
REMARK   29  A    between atoms: _66  and  _67
REMARK   30  A    between atoms: _66  and  _69
REMARK   31  A    between atoms: _69  and  _70
REMARK   32  A    between atoms: _70  and  _71
REMARK   33  A    between atoms: _71  and  _72
REMARK   34  A    between atoms: _72  and  _73
REMARK   35  A    between atoms: _77  and  _79
REMARK   36  A    between atoms: _79  and  _80
REMARK   37  A    between atoms: _79  and  _82
REMARK   38  A    between atoms: _82  and  _83
REMARK   39  A    between atoms: _88  and  _90
REMARK   40  A    between atoms: _90  and  _91
REMARK   41  A    between atoms: _90  and  _93
REMARK   42  A    between atoms: _93  and  _94
REMARK   43  A    between atoms: _94  and  _95
REMARK   44  A    between atoms: _95  and  _96
REMARK   45  A    between atoms: _96  and  _97
REMARK   46  A    between atoms: _101  and  _103
REMARK   47  A    between atoms: _103  and  _104
REMARK   48  A    between atoms: _103  and  _106
REMARK   49  A    between atoms: _106  and  _107
REMARK   50  A    between atoms: _110  and  _112
REMARK   51  A    between atoms: _112  and  _113
REMARK   52  A    between atoms: _112  and  _115
REMARK   53  A    between atoms: _115  and  _116
REMARK   54  A    between atoms: _116  and  _117
REMARK   55  A    between atoms: _117  and  _118
REMARK   56  A    between atoms: _127  and  _129
REMARK   57  A    between atoms: _129  and  _130
REMARK   58  A    between atoms: _129  and  _132
REMARK   59  A    between atoms: _132  and  _133
REMARK   60  A    between atoms: _136  and  _138
REMARK   61  A    between atoms: _138  and  _139
REMARK   62  A    between atoms: _138  and  _141
REMARK   63  A    between atoms: _141  and  _142
REMARK   64  A    between atoms: _145  and  _147
REMARK   65  A    between atoms: _147  and  _148
REMARK   66  A    between atoms: _147  and  _150
REMARK   67  A    between atoms: _150  and  _151
REMARK   68  A    between atoms: _156  and  _157
REMARK   69  A    between atoms: _159  and  _161
REMARK   70  A    between atoms: _161  and  _162
REMARK   71  A    between atoms: _161  and  _164
REMARK   72  A    between atoms: _164  and  _165
REMARK   73  A    between atoms: _165  and  _166
REMARK   74  A    between atoms: _166  and  _167
REMARK   75  A    between atoms: _176  and  _178
REMARK   76  A    between atoms: _178  and  _179
REMARK   77  A    between atoms: _178  and  _181
REMARK   78  A    between atoms: _181  and  _182
REMARK   79  A    between atoms: _184  and  _186
REMARK   80  A    between atoms: _186  and  _187
REMARK   81  A    between atoms: _186  and  _189
REMARK   82  A    between atoms: _191  and  _193
REMARK   83  A    between atoms: _193  and  _194
REMARK   84  A    between atoms: _193  and  _196
REMARK   85  A    between atoms: _196  and  _197
REMARK   86  A    between atoms: _200  and  _202
REMARK   87  A    between atoms: _202  and  _203
REMARK   88  A    between atoms: _202  and  _205
REMARK   89  A    between atoms: _205  and  _206
REMARK   90  A    between atoms: _206  and  _207
REMARK   91  A    between atoms: _210  and  _212
REMARK   92  A    between atoms: _212  and  _213
REMARK   93  A    between atoms: _212  and  _215
REMARK   94  A    between atoms: _215  and  _216
REMARK   95  A    between atoms: _219  and  _221
REMARK   96  A    between atoms: _221  and  _222
REMARK   97  A    between atoms: _224  and  _226
REMARK   98  A    between atoms: _226  and  _227
REMARK   99  A    between atoms: _226  and  _229
REMARK  100  A    between atoms: _229  and  _230
REMARK  101  A    between atoms: _235  and  _237
REMARK  102  A    between atoms: _237  and  _238
REMARK  103  A    between atoms: _237  and  _240
REMARK  104  A    between atoms: _240  and  _241
REMARK  105  A    between atoms: _246  and  _248
REMARK  106  A    between atoms: _248  and  _249
REMARK  107  A    between atoms: _248  and  _251
REMARK  108  A    between atoms: _251  and  _252
REMARK  109  A    between atoms: _252  and  _253
REMARK  110  A    between atoms: _256  and  _258
REMARK  111  A    between atoms: _258  and  _259
REMARK  112  A    between atoms: _258  and  _261
REMARK  113  A    between atoms: _261  and  _262
REMARK                            x       y       z     vdW  Elec       q    Type
REMARK                         _______ _______ _______ _____ _____    ______ ____
ROOT
ATOM      1  CG  TYR A   1      16.111   3.449  25.698  0.00  0.00    -0.020 A 
ATOM      2  CD2 TYR A   1      16.122   2.348  26.539  0.00  0.00    -0.001 A 
ATOM      3  CE2 TYR A   1      15.255   2.260  27.613  0.00  0.00    +0.036 A 
ATOM      4  CZ  TYR A   1      14.348   3.273  27.840  0.00  0.00    +0.134 A 
ATOM      5  CE1 TYR A   1      14.312   4.373  27.012  0.00  0.00    +0.036 A 
ATOM      6  CD1 TYR A   1      15.184   4.452  25.945  0.00  0.00    -0.001 A 
ENDROOT
BRANCH   4   7
ATOM      7  OH  TYR A   1      13.480   3.190  28.905  0.00  0.00    -0.506 OA
ATOM      8  HH  TYR A   1      13.638   2.343  29.393  0.00  0.00    +0.292 HD
ENDBRANCH   4   7
BRANCH   1   9
ATOM      9  CB  TYR A   1      17.044   3.533  24.511  0.00  0.00    +0.051 C 
BRANCH   9  10
ATOM     10  CA  TYR A   1      18.515   3.804  24.823  0.00  0.00    +0.137 C 
BRANCH  10  11
ATOM     11  N   TYR A   1      18.742   5.199  25.174  0.00  0.00    -0.239 NA
ATOM     12  H   TYR A   1      18.171   5.933  24.708  0.00  0.00    +0.142 HD
ENDBRANCH  10  11
BRANCH  10  13
ATOM     13  C   TYR A   1      19.350   3.477  23.599  0.00  0.00    +0.224 C 
ATOM     14  O   TYR A   1      19.121   4.046  22.533  0.00  0.00    -0.287 OA
ENDBRANCH  10  13
ENDBRANCH   9  10
ENDBRANCH   1   9
TORSDOF 5
REMARK  Name = ../refined-set-2016/4np9/4np9_pocket.pdb
REMARK  113 active torsions:
REMARK  status: ('A' for Active; 'I' for Inactive)
REMARK    1  A    between atoms: _1  and  _3
REMARK    2  A    between atoms: _3  and  _4
REMARK    3  A    between atoms: _3  and  _6
REMARK    4  A    between atoms: _6  and  _7
REMARK    5  A    between atoms: _12  and  _13
REMARK    6  A    between atoms: _15  and  _17
REMARK    7  A    between atoms: _17  and  _18
REMARK    8  A    between atoms: _17  and  _20
REMARK    9  A    between atoms: _23  and  _25
REMARK   10  A    between atoms: _25  and  _26
REMARK   11  A    between atoms: _25  and  _28
REMARK   12  A    between atoms: _28  and  _29
REMARK   13  A    between atoms: _29  and  _30
REMARK   14  A    between atoms: _30  and  _31
REMARK   15  A    between atoms: _31  and  _32
REMARK   16  A    between atoms: _36  and  _38
REMARK   17  A    between atoms: _38  and  _39
REMARK   18  A    between atoms: _38  and  _41
REMARK   19  A    between atoms: _41  and  _42
REMARK   20  A    between atoms: _45  and  _47
REMARK   21  A    between atoms: _47  and  _48
REMARK   22  A    between atoms: _47  and  _50
REMARK   23  A    between atoms: _50  and  _51
REMARK   24  A    between atoms: _56  and  _58
REMARK   25  A    between atoms: _58  and  _59
REMARK   26  A    between atoms: _58  and  _61
REMARK   27  A    between atoms: _61  and  _62
REMARK   28  A    between atoms: _64  and  _66
REMARK   29  A    between atoms: _66  and  _67
REMARK   30  A    between atoms: _66  and  _69
REMARK   31  A    between atoms: _69  and  _70
REMARK   32  A    between atoms: _70  and  _71
REMARK   33  A    between atoms: _71  and  _72
REMARK   34  A    between atoms: _72  and  _73
REMARK   35  A    between atoms: _77  and  _79
REMARK   36  A    between atoms: _79  and  _80
REMARK   37  A    between atoms: _79  and  _82
REMARK   38  A    between atoms: _82  and  _83
REMARK   39  A    between atoms: _88  and  _90
REMARK   40  A    between atoms: _90  and  _91
REMARK   41  A    between atoms: _90  and  _93
REMARK   42  A    between atoms: _93  and  _94
REMARK   43  A    between atoms: _94  and  _95
REMARK   44  A    between atoms: _95  and  _96
REMARK   45  A    between atoms: _96  and  _97
REMARK   46  A    between atoms: _101  and  _103
REMARK   47  A    between atoms: _103  and  _104
REMARK   48  A    between atoms: _103  and  _106
REMARK   49  A    between atoms: _106  and  _107
REMARK   50  A    between atoms: _110  and  _112
REMARK   51  A    between atoms: _112  and  _113
REMARK   52  A    between atoms: _112  and  _115
REMARK   53  A    between atoms: _115  and  _116
REMARK   54  A    between atoms: _116  and  _117
REMARK   55  A    between atoms: _117  and  _118
REMARK   56  A    between atoms: _127  and  _129
REMARK   57  A    between atoms: _129  and  _130
REMARK   58  A    between atoms: _129  and  _132
REMARK   59  A    between atoms: _132  and  _133
REMARK   60  A    between atoms: _136  and  _138
REMARK   61  A    between atoms: _138  and  _139
REMARK   62  A    between atoms: _138  and  _141
REMARK   63  A    between atoms: _141  and  _142
REMARK   64  A    between atoms: _145  and  _147
REMARK   65  A    between atoms: _147  and  _148
REMARK   66  A    between atoms: _147  and  _150
REMARK   67  A    between atoms: _150  and  _151
REMARK   68  A    between atoms: _156  and  _157
REMARK   69  A    between atoms: _159  and  _161
REMARK   70  A    between atoms: _161  and  _162
REMARK   71  A    between atoms: _161  and  _164
REMARK   72  A    between atoms: _164  and  _165
REMARK   73  A    between atoms: _165  and  _166
REMARK   74  A    between atoms: _166  and  _167
REMARK   75  A    between atoms: _176  and  _178
REMARK   76  A    between atoms: _178  and  _179
REMARK   77  A    between atoms: _178  and  _181
REMARK   78  A    between atoms: _181  and  _182
REMARK   79  A    between atoms: _184  and  _186
REMARK   80  A    between atoms: _186  and  _187
REMARK   81  A    between atoms: _186  and  _189
REMARK   82  A    between atoms: _191  and  _193
REMARK   83  A    between atoms: _193  and  _194
REMARK   84  A    between atoms: _193  and  _196
REMARK   85  A    between atoms: _196  and  _197
REMARK   86  A    between atoms: _200  and  _202
REMARK   87  A    between atoms: _202  and  _203
REMARK   88  A    between atoms: _202  and  _205
REMARK   89  A    between atoms: _205  and  _206
REMARK   90  A    between atoms: _206  and  _207
REMARK   91  A    between atoms: _210  and  _212
REMARK   92  A    between atoms: _212  and  _213
REMARK   93  A    between atoms: _212  and  _215
REMARK   94  A    between atoms: _215  and  _216
REMARK   95  A    between atoms: _219  and  _221
REMARK   96  A    between atoms: _221  and  _222
REMARK   97  A    between atoms: _224  and  _226
REMARK   98  A    between atoms: _226  and  _227
REMARK   99  A    between atoms: _226  and  _229
REMARK  100  A    between atoms: _229  and  _230
REMARK  101  A    between atoms: _235  and  _237
REMARK  102  A    between atoms: _237  and  _238
REMARK  103  A    between atoms: _237  and  _240
REMARK  104  A    between atoms: _240  and  _241
REMARK  105  A    between atoms: _246  and  _248
REMARK  106  A    between atoms: _248  and  _249
REMARK  107  A    between atoms: _248  and  _251
REMARK  108  A    between atoms: _251  and  _252
REMARK  109  A    between atoms: _252  and  _253
REMARK  110  A    between atoms: _256  and  _258
REMARK  111  A    between atoms: _258  and  _259
REMARK  112  A    between atoms: _258  and  _261
REMARK  113  A    between atoms: _261  and  _262
REMARK                            x       y       z     vdW  Elec       q    Type
REMARK                         _______ _______ _______ _____ _____    ______ ____
ROOT
ATOM      1  NE  ARG A   1       4.358   2.572  32.081  0.00  0.00    -0.265 N 
ATOM      2  CZ  ARG A   1       4.818   2.347  33.309  0.00  0.00    +0.342 C 
ATOM      3  NH2 ARG A   1       4.747   3.288  34.244  0.00  0.00    -0.292 N 
ATOM      4 HH21 ARG A   1       5.110   3.099  35.200  0.00  0.00    +0.255 HD
ATOM      5 HH22 ARG A   1       4.328   4.213  34.020  0.00  0.00    +0.255 HD
ATOM      6  NH1 ARG A   1       5.357   1.172  33.603  0.00  0.00    -0.292 N 
ATOM      7 HH11 ARG A   1       5.718   0.991  34.561  0.00  0.00    +0.255 HD
ATOM      8 HH12 ARG A   1       5.419   0.432  32.875  0.00  0.00    +0.255 HD
ATOM      9  HE  ARG A   1       4.442   1.802  31.386  0.00  0.00    +0.259 HD
ENDROOT
BRANCH   1  10
ATOM     10  CD  ARG A   1       3.744   3.820  31.637  0.00  0.00    +0.174 C 
BRANCH  10  11
ATOM     11  CG  ARG A   1       4.766   4.829  31.139  0.00  0.00    +0.045 C 
BRANCH  11  12
ATOM     12  CB  ARG A   1       5.545   4.326  29.927  0.00  0.00    +0.029 C 
BRANCH  12  13
ATOM     13  CA  ARG A   1       6.229   5.453  29.151  0.00  0.00    +0.133 C 
BRANCH  13  14
ATOM     14  N   ARG A   1       6.984   4.939  28.016  0.00  0.00    -0.239 NA
ATOM     15  H   ARG A   1       7.581   4.096  28.139  0.00  0.00    +0.142 HD
ENDBRANCH  13  14
BRANCH  13  16
ATOM     16  C   ARG A   1       7.156   6.237  30.070  0.00  0.00    +0.224 C 
ATOM     17  O   ARG A   1       8.186   5.727  30.516  0.00  0.00    -0.287 OA
ENDBRANCH  13  16
ENDBRANCH  12  13
ENDBRANCH  11  12
ENDBRANCH  10  11
ENDBRANCH   1  10
TORSDOF 6
REMARK  Name = ../refined-set-2016/4np9/4np9_pocket.pdb
REMARK  113 active torsions:
REMARK  status: ('A' for Active; 'I' for Inactive)
REMARK    1  A    between atoms: _1  and  _3
REMARK    2  A    between atoms: _3  and  _4
REMARK    3  A    between atoms: _3  and  _6
REMARK    4  A    between atoms: _6  and  _7
REMARK    5  A    between atoms: _12  and  _13
REMARK    6  A    between atoms: _15  and  _17
REMARK    7  A    between atoms: _17  and  _18
REMARK    8  A    between atoms: _17  and  _20
REMARK    9  A    between atoms: _23  and  _25
REMARK   10  A    between atoms: _25  and  _26
REMARK   11  A    between atoms: _25  and  _28
REMARK   12  A    between atoms: _28  and  _29
REMARK   13  A    between atoms: _29  and  _30
REMARK   14  A    between atoms: _30  and  _31
REMARK   15  A    between atoms: _31  and  _32
REMARK   16  A    between atoms: _36  and  _38
REMARK   17  A    between atoms: _38  and  _39
REMARK   18  A    between atoms: _38  and  _41
REMARK   19  A    between atoms: _41  and  _42
REMARK   20  A    between atoms: _45  and  _47
REMARK   21  A    between atoms: _47  and  _48
REMARK   22  A    between atoms: _47  and  _50
REMARK   23  A    between atoms: _50  and  _51
REMARK   24  A    between atoms: _56  and  _58
REMARK   25  A    between atoms: _58  and  _59
REMARK   26  A    between atoms: _58  and  _61
REMARK   27  A    between atoms: _61  and  _62
REMARK   28  A    between atoms: _64  and  _66
REMARK   29  A    between atoms: _66  and  _67
REMARK   30  A    between atoms: _66  and  _69
REMARK   31  A    between atoms: _69  and  _70
REMARK   32  A    between atoms: _70  and  _71
REMARK   33  A    between atoms: _71  and  _72
REMARK   34  A    between atoms: _72  and  _73
REMARK   35  A    between atoms: _77  and  _79
REMARK   36  A    between atoms: _79  and  _80
REMARK   37  A    between atoms: _79  and  _82
REMARK   38  A    between atoms: _82  and  _83
REMARK   39  A    between atoms: _88  and  _90
REMARK   40  A    between atoms: _90  and  _91
REMARK   41  A    between atoms: _90  and  _93
REMARK   42  A    between atoms: _93  and  _94
REMARK   43  A    between atoms: _94  and  _95
REMARK   44  A    between atoms: _95  and  _96
REMARK   45  A    between atoms: _96  and  _97
REMARK   46  A    between atoms: _101  and  _103
REMARK   47  A    between atoms: _103  and  _104
REMARK   48  A    between atoms: _103  and  _106
REMARK   49  A    between atoms: _106  and  _107
REMARK   50  A    between atoms: _110  and  _112
REMARK   51  A    between atoms: _112  and  _113
REMARK   52  A    between atoms: _112  and  _115
REMARK   53  A    between atoms: _115  and  _116
REMARK   54  A    between atoms: _116  and  _117
REMARK   55  A    between atoms: _117  and  _118
REMARK   56  A    between atoms: _127  and  _129
REMARK   57  A    between atoms: _129  and  _130
REMARK   58  A    between atoms: _129  and  _132
REMARK   59  A    between atoms: _132  and  _133
REMARK   60  A    between atoms: _136  and  _138
REMARK   61  A    between atoms: _138  and  _139
REMARK   62  A    between atoms: _138  and  _141
REMARK   63  A    between atoms: _141  and  _142
REMARK   64  A    between atoms: _145  and  _147
REMARK   65  A    between atoms: _147  and  _148
REMARK   66  A    between atoms: _147  and  _150
REMARK   67  A    between atoms: _150  and  _151
REMARK   68  A    between atoms: _156  and  _157
REMARK   69  A    between atoms: _159  and  _161
REMARK   70  A    between atoms: _161  and  _162
REMARK   71  A    between atoms: _161  and  _164
REMARK   72  A    between atoms: _164  and  _165
REMARK   73  A    between atoms: _165  and  _166
REMARK   74  A    between atoms: _166  and  _167
REMARK   75  A    between atoms: _176  and  _178
REMARK   76  A    between atoms: _178  and  _179
REMARK   77  A    between atoms: _178  and  _181
REMARK   78  A    between atoms: _181  and  _182
REMARK   79  A    between atoms: _184  and  _186
REMARK   80  A    between atoms: _186  and  _187
REMARK   81  A    between atoms: _186  and  _189
REMARK   82  A    between atoms: _191  and  _193
REMARK   83  A    between atoms: _193  and  _194
REMARK   84  A    between atoms: _193  and  _196
REMARK   85  A    between atoms: _196  and  _197
REMARK   86  A    between atoms: _200  and  _202
REMARK   87  A    between atoms: _202  and  _203
REMARK   88  A    between atoms: _202  and  _205
REMARK   89  A    between atoms: _205  and  _206
REMARK   90  A    between atoms: _206  and  _207
REMARK   91  A    between atoms: _210  and  _212
REMARK   92  A    between atoms: _212  and  _213
REMARK   93  A    between atoms: _212  and  _215
REMARK   94  A    between atoms: _215  and  _216
REMARK   95  A    between atoms: _219  and  _221
REMARK   96  A    between atoms: _221  and  _222
REMARK   97  A    between atoms: _224  and  _226
REMARK   98  A    between atoms: _226  and  _227
REMARK   99  A    between atoms: _226  and  _229
REMARK  100  A    between atoms: _229  and  _230
REMARK  101  A    between atoms: _235  and  _237
REMARK  102  A    between atoms: _237  and  _238
REMARK  103  A    between atoms: _237  and  _240
REMARK  104  A    between atoms: _240  and  _241
REMARK  105  A    between atoms: _246  and  _248
REMARK  106  A    between atoms: _248  and  _249
REMARK  107  A    between atoms: _248  and  _251
REMARK  108  A    between atoms: _251  and  _252
REMARK  109  A    between atoms: _252  and  _253
REMARK  110  A    between atoms: _256  and  _258
REMARK  111  A    between atoms: _258  and  _259
REMARK  112  A    between atoms: _258  and  _261
REMARK  113  A    between atoms: _261  and  _262
REMARK                            x       y       z     vdW  Elec       q    Type
REMARK                         _______ _______ _______ _____ _____    ______ ____
ROOT
ATOM      1  CA  SER A   1       6.505   8.421  34.883  0.00  0.00    +0.163 C 
ENDROOT
BRANCH   1   2
ATOM      2  N   SER A   1       7.218   8.228  33.622  0.00  0.00    -0.237 NA
ATOM      3  H   SER A   1       8.150   7.767  33.631  0.00  0.00    +0.142 HD
ENDBRANCH   1   2
BRANCH   1   4
ATOM      4  C   SER A   1       7.320   9.266  35.854  0.00  0.00    +0.227 C 
ATOM      5  O   SER A   1       8.548   9.193  35.885  0.00  0.00    -0.287 OA
ENDBRANCH   1   4
BRANCH   1   6
ATOM      6  CB  SER A   1       6.162   7.072  35.521  0.00  0.00    +0.162 C 
BRANCH   6   7
ATOM      7  OG  SER A   1       7.292   6.223  35.569  0.00  0.00    -0.380 OA
ATOM      8  H   SER A   1       7.622   6.062  34.649  0.00  0.00    +0.211 HD
ENDBRANCH   6   7
ENDBRANCH   1   6
TORSDOF 4
REMARK  Name = ../refined-set-2016/4np9/4np9_pocket.pdb
REMARK  113 active torsions:
REMARK  status: ('A' for Active; 'I' for Inactive)
REMARK    1  A    between atoms: _1  and  _3
REMARK    2  A    between atoms: _3  and  _4
REMARK    3  A    between atoms: _3  and  _6
REMARK    4  A    between atoms: _6  and  _7
REMARK    5  A    between atoms: _12  and  _13
REMARK    6  A    between atoms: _15  and  _17
REMARK    7  A    between atoms: _17  and  _18
REMARK    8  A    between atoms: _17  and  _20
REMARK    9  A    between atoms: _23  and  _25
REMARK   10  A    between atoms: _25  and  _26
REMARK   11  A    between atoms: _25  and  _28
REMARK   12  A    between atoms: _28  and  _29
REMARK   13  A    between atoms: _29  and  _30
REMARK   14  A    between atoms: _30  and  _31
REMARK   15  A    between atoms: _31  and  _32
REMARK   16  A    between atoms: _36  and  _38
REMARK   17  A    between atoms: _38  and  _39
REMARK   18  A    between atoms: _38  and  _41
REMARK   19  A    between atoms: _41  and  _42
REMARK   20  A    between atoms: _45  and  _47
REMARK   21  A    between atoms: _47  and  _48
REMARK   22  A    between atoms: _47  and  _50
REMARK   23  A    between atoms: _50  and  _51
REMARK   24  A    between atoms: _56  and  _58
REMARK   25  A    between atoms: _58  and  _59
REMARK   26  A    between atoms: _58  and  _61
REMARK   27  A    between atoms: _61  and  _62
REMARK   28  A    between atoms: _64  and  _66
REMARK   29  A    between atoms: _66  and  _67
REMARK   30  A    between atoms: _66  and  _69
REMARK   31  A    between atoms: _69  and  _70
REMARK   32  A    between atoms: _70  and  _71
REMARK   33  A    between atoms: _71  and  _72
REMARK   34  A    between atoms: _72  and  _73
REMARK   35  A    between atoms: _77  and  _79
REMARK   36  A    between atoms: _79  and  _80
REMARK   37  A    between atoms: _79  and  _82
REMARK   38  A    between atoms: _82  and  _83
REMARK   39  A    between atoms: _88  and  _90
REMARK   40  A    between atoms: _90  and  _91
REMARK   41  A    between atoms: _90  and  _93
REMARK   42  A    between atoms: _93  and  _94
REMARK   43  A    between atoms: _94  and  _95
REMARK   44  A    between atoms: _95  and  _96
REMARK   45  A    between atoms: _96  and  _97
REMARK   46  A    between atoms: _101  and  _103
REMARK   47  A    between atoms: _103  and  _104
REMARK   48  A    between atoms: _103  and  _106
REMARK   49  A    between atoms: _106  and  _107
REMARK   50  A    between atoms: _110  and  _112
REMARK   51  A    between atoms: _112  and  _113
REMARK   52  A    between atoms: _112  and  _115
REMARK   53  A    between atoms: _115  and  _116
REMARK   54  A    between atoms: _116  and  _117
REMARK   55  A    between atoms: _117  and  _118
REMARK   56  A    between atoms: _127  and  _129
REMARK   57  A    between atoms: _129  and  _130
REMARK   58  A    between atoms: _129  and  _132
REMARK   59  A    between atoms: _132  and  _133
REMARK   60  A    between atoms: _136  and  _138
REMARK   61  A    between atoms: _138  and  _139
REMARK   62  A    between atoms: _138  and  _141
REMARK   63  A    between atoms: _141  and  _142
REMARK   64  A    between atoms: _145  and  _147
REMARK   65  A    between atoms: _147  and  _148
REMARK   66  A    between atoms: _147  and  _150
REMARK   67  A    between atoms: _150  and  _151
REMARK   68  A    between atoms: _156  and  _157
REMARK   69  A    between atoms: _159  and  _161
REMARK   70  A    between atoms: _161  and  _162
REMARK   71  A    between atoms: _161  and  _164
REMARK   72  A    between atoms: _164  and  _165
REMARK   73  A    between atoms: _165  and  _166
REMARK   74  A    between atoms: _166  and  _167
REMARK   75  A    between atoms: _176  and  _178
REMARK   76  A    between atoms: _178  and  _179
REMARK   77  A    between atoms: _178  and  _181
REMARK   78  A    between atoms: _181  and  _182
REMARK   79  A    between atoms: _184  and  _186
REMARK   80  A    between atoms: _186  and  _187
REMARK   81  A    between atoms: _186  and  _189
REMARK   82  A    between atoms: _191  and  _193
REMARK   83  A    between atoms: _193  and  _194
REMARK   84  A    between atoms: _193  and  _196
REMARK   85  A    between atoms: _196  and  _197
REMARK   86  A    between atoms: _200  and  _202
REMARK   87  A    between atoms: _202  and  _203
REMARK   88  A    between atoms: _202  and  _205
REMARK   89  A    between atoms: _205  and  _206
REMARK   90  A    between atoms: _206  and  _207
REMARK   91  A    between atoms: _210  and  _212
REMARK   92  A    between atoms: _212  and  _213
REMARK   93  A    between atoms: _212  and  _215
REMARK   94  A    between atoms: _215  and  _216
REMARK   95  A    between atoms: _219  and  _221
REMARK   96  A    between atoms: _221  and  _222
REMARK   97  A    between atoms: _224  and  _226
REMARK   98  A    between atoms: _226  and  _227
REMARK   99  A    between atoms: _226  and  _229
REMARK  100  A    between atoms: _229  and  _230
REMARK  101  A    between atoms: _235  and  _237
REMARK  102  A    between atoms: _237  and  _238
REMARK  103  A    between atoms: _237  and  _240
REMARK  104  A    between atoms: _240  and  _241
REMARK  105  A    between atoms: _246  and  _248
REMARK  106  A    between atoms: _248  and  _249
REMARK  107  A    between atoms: _248  and  _251
REMARK  108  A    between atoms: _251  and  _252
REMARK  109  A    between atoms: _252  and  _253
REMARK  110  A    between atoms: _256  and  _258
REMARK  111  A    between atoms: _258  and  _259
REMARK  112  A    between atoms: _258  and  _261
REMARK  113  A    between atoms: _261  and  _262
REMARK                            x       y       z     vdW  Elec       q    Type
REMARK                         _______ _______ _______ _____ _____    ______ ____
ROOT
ATOM      1  C   ASP A   2       9.310  10.004  45.386  0.00  0.00    +0.241 C 
ATOM      2  O   ASP A   2       8.604   9.087  45.795  0.00  0.00    -0.273 OA
ATOM      3  N   GLU A   3      10.616  10.069  45.626  0.00  0.00    -0.297 N 
ATOM      4  H   GLU A   3      11.180  10.821  45.180  0.00  0.00    +0.150 HD
ENDROOT
BRANCH   3   5
ATOM      5  CA  GLU A   3      11.274   9.106  46.503  0.00  0.00    +0.149 C 
BRANCH   5   6
ATOM      6  C   GLU A   3      10.979   9.473  47.955  0.00  0.00    +0.241 C 
ATOM      7  N   ASP A   4      10.650   8.480  48.776  0.00  0.00    -0.298 N 
ATOM      8  H   ASP A   4      10.640   7.502  48.424  0.00  0.00    +0.150 HD
ATOM      9  O   GLU A   3      11.040  10.645  48.323  0.00  0.00    -0.273 OA
BRANCH   7  10
ATOM     10  CA  ASP A   4      10.304   8.751  50.164  0.00  0.00    +0.148 C 
BRANCH  10  11
ATOM     11  C   ASP A   4      11.504   8.550  51.097  0.00  0.00    +0.227 C 
ATOM     12  O   ASP A   4      12.637   8.381  50.646  0.00  0.00    -0.286 OA
ENDBRANCH  10  11
BRANCH  10  13
ATOM     13  CB  ASP A   4       9.115   7.882  50.598  0.00  0.00    +0.142 C 
BRANCH  13  14
ATOM     14  CG  ASP A   4       9.397   6.389  50.525  0.00  0.00    +0.367 C 
ATOM     15  OD2 ASP A   4       8.418   5.619  50.613  0.00  0.00    -0.246 OA
ATOM     16  OD1 ASP A   4      10.572   5.975  50.412  0.00  0.00    -0.246 OA
ENDBRANCH  13  14
ENDBRANCH  10  13
ENDBRANCH   7  10
ENDBRANCH   5   6
BRANCH   5  17
ATOM     17  CB  GLU A   3      12.783   9.080  46.246  0.00  0.00    +0.041 C 
BRANCH  17  18
ATOM     18  CG  GLU A   3      13.490   7.886  46.866  0.00  0.00    +0.116 C 
BRANCH  18  19
ATOM     19  CD  GLU A   3      14.928   7.732  46.399  0.00  0.00    +0.365 C 
ATOM     20  OE2 GLU A   3      15.660   6.927  47.010  0.00  0.00    -0.246 OA
ATOM     21  OE1 GLU A   3      15.327   8.406  45.426  0.00  0.00    -0.246 OA
ENDBRANCH  18  19
ENDBRANCH  17  18
ENDBRANCH   5  17
ENDBRANCH   3   5
BRANCH   1  22
ATOM     22  CA  ASP A   2       8.699  11.136  44.570  0.00  0.00    +0.160 C 
BRANCH  22  24
ATOM     23  C   CYS A   1       8.435  10.573  42.205  0.00  0.00    +0.239 C 
ATOM     24  N   ASP A   2       7.955  10.581  43.445  0.00  0.00    -0.297 N 
ATOM     25  H   ASP A   2       7.013  10.176  43.619  0.00  0.00    +0.150 HD
ATOM     26  O   CYS A   1       9.455  11.165  41.866  0.00  0.00    -0.274 OA
BRANCH  23  27
ATOM     27  CA  CYS A   1       7.636   9.772  41.194  0.00  0.00    +0.156 C 
BRANCH  27  28
ATOM     28  CB  CYS A   1       8.028   8.300  41.290  0.00  0.00    +0.095 C 
ATOM     29  SG  CYS A   1       7.132   7.233  40.164  0.00  0.00    -0.080 S 
ENDBRANCH  27  28
BRANCH  27  30
ATOM     30  N   CYS A   1       7.851  10.270  39.840  0.00  0.00    -0.237 NA
ATOM     31  H   CYS A   1       8.822  10.458  39.520  0.00  0.00    +0.142 HD
ENDBRANCH  27  30
ENDBRANCH  23  27
ENDBRANCH  22  24
BRANCH  22  32
ATOM     32  CB  ASP A   2       7.789  11.980  45.468  0.00  0.00    +0.143 C 
BRANCH  32  33
ATOM     33  CG  ASP A   2       7.579  13.389  44.945  0.00  0.00    +0.367 C 
ATOM     34  OD2 ASP A   2       6.500  13.960  45.217  0.00  0.00    -0.246 OA
ATOM     35  OD1 ASP A   2       8.487  13.933  44.283  0.00  0.00    -0.246 OA
ENDBRANCH  32  33
ENDBRANCH  22  32
ENDBRANCH   1  22
TORSDOF 16
REMARK  Name = ../refined-set-2016/4np9/4np9_pocket.pdb
REMARK  113 active torsions:
REMARK  status: ('A' for Active; 'I' for Inactive)
REMARK    1  A    between atoms: _1  and  _3
REMARK    2  A    between atoms: _3  and  _4
REMARK    3  A    between atoms: _3  and  _6
REMARK    4  A    between atoms: _6  and  _7
REMARK    5  A    between atoms: _12  and  _13
REMARK    6  A    between atoms: _15  and  _17
REMARK    7  A    between atoms: _17  and  _18
REMARK    8  A    between atoms: _17  and  _20
REMARK    9  A    between atoms: _23  and  _25
REMARK   10  A    between atoms: _25  and  _26
REMARK   11  A    between atoms: _25  and  _28
REMARK   12  A    between atoms: _28  and  _29
REMARK   13  A    between atoms: _29  and  _30
REMARK   14  A    between atoms: _30  and  _31
REMARK   15  A    between atoms: _31  and  _32
REMARK   16  A    between atoms: _36  and  _38
REMARK   17  A    between atoms: _38  and  _39
REMARK   18  A    between atoms: _38  and  _41
REMARK   19  A    between atoms: _41  and  _42
REMARK   20  A    between atoms: _45  and  _47
REMARK   21  A    between atoms: _47  and  _48
REMARK   22  A    between atoms: _47  and  _50
REMARK   23  A    between atoms: _50  and  _51
REMARK   24  A    between atoms: _56  and  _58
REMARK   25  A    between atoms: _58  and  _59
REMARK   26  A    between atoms: _58  and  _61
REMARK   27  A    between atoms: _61  and  _62
REMARK   28  A    between atoms: _64  and  _66
REMARK   29  A    between atoms: _66  and  _67
REMARK   30  A    between atoms: _66  and  _69
REMARK   31  A    between atoms: _69  and  _70
REMARK   32  A    between atoms: _70  and  _71
REMARK   33  A    between atoms: _71  and  _72
REMARK   34  A    between atoms: _72  and  _73
REMARK   35  A    between atoms: _77  and  _79
REMARK   36  A    between atoms: _79  and  _80
REMARK   37  A    between atoms: _79  and  _82
REMARK   38  A    between atoms: _82  and  _83
REMARK   39  A    between atoms: _88  and  _90
REMARK   40  A    between atoms: _90  and  _91
REMARK   41  A    between atoms: _90  and  _93
REMARK   42  A    between atoms: _93  and  _94
REMARK   43  A    between atoms: _94  and  _95
REMARK   44  A    between atoms: _95  and  _96
REMARK   45  A    between atoms: _96  and  _97
REMARK   46  A    between atoms: _101  and  _103
REMARK   47  A    between atoms: _103  and  _104
REMARK   48  A    between atoms: _103  and  _106
REMARK   49  A    between atoms: _106  and  _107
REMARK   50  A    between atoms: _110  and  _112
REMARK   51  A    between atoms: _112  and  _113
REMARK   52  A    between atoms: _112  and  _115
REMARK   53  A    between atoms: _115  and  _116
REMARK   54  A    between atoms: _116  and  _117
REMARK   55  A    between atoms: _117  and  _118
REMARK   56  A    between atoms: _127  and  _129
REMARK   57  A    between atoms: _129  and  _130
REMARK   58  A    between atoms: _129  and  _132
REMARK   59  A    between atoms: _132  and  _133
REMARK   60  A    between atoms: _136  and  _138
REMARK   61  A    between atoms: _138  and  _139
REMARK   62  A    between atoms: _138  and  _141
REMARK   63  A    between atoms: _141  and  _142
REMARK   64  A    between atoms: _145  and  _147
REMARK   65  A    between atoms: _147  and  _148
REMARK   66  A    between atoms: _147  and  _150
REMARK   67  A    between atoms: _150  and  _151
REMARK   68  A    between atoms: _156  and  _157
REMARK   69  A    between atoms: _159  and  _161
REMARK   70  A    between atoms: _161  and  _162
REMARK   71  A    between atoms: _161  and  _164
REMARK   72  A    between atoms: _164  and  _165
REMARK   73  A    between atoms: _165  and  _166
REMARK   74  A    between atoms: _166  and  _167
REMARK   75  A    between atoms: _176  and  _178
REMARK   76  A    between atoms: _178  and  _179
REMARK   77  A    between atoms: _178  and  _181
REMARK   78  A    between atoms: _181  and  _182
REMARK   79  A    between atoms: _184  and  _186
REMARK   80  A    between atoms: _186  and  _187
REMARK   81  A    between atoms: _186  and  _189
REMARK   82  A    between atoms: _191  and  _193
REMARK   83  A    between atoms: _193  and  _194
REMARK   84  A    between atoms: _193  and  _196
REMARK   85  A    between atoms: _196  and  _197
REMARK   86  A    between atoms: _200  and  _202
REMARK   87  A    between atoms: _202  and  _203
REMARK   88  A    between atoms: _202  and  _205
REMARK   89  A    between atoms: _205  and  _206
REMARK   90  A    between atoms: _206  and  _207
REMARK   91  A    between atoms: _210  and  _212
REMARK   92  A    between atoms: _212  and  _213
REMARK   93  A    between atoms: _212  and  _215
REMARK   94  A    between atoms: _215  and  _216
REMARK   95  A    between atoms: _219  and  _221
REMARK   96  A    between atoms: _221  and  _222
REMARK   97  A    between atoms: _224  and  _226
REMARK   98  A    between atoms: _226  and  _227
REMARK   99  A    between atoms: _226  and  _229
REMARK  100  A    between atoms: _229  and  _230
REMARK  101  A    between atoms: _235  and  _237
REMARK  102  A    between atoms: _237  and  _238
REMARK  103  A    between atoms: _237  and  _240
REMARK  104  A    between atoms: _240  and  _241
REMARK  105  A    between atoms: _246  and  _248
REMARK  106  A    between atoms: _248  and  _249
REMARK  107  A    between atoms: _248  and  _251
REMARK  108  A    between atoms: _251  and  _252
REMARK  109  A    between atoms: _252  and  _253
REMARK  110  A    between atoms: _256  and  _258
REMARK  111  A    between atoms: _258  and  _259
REMARK  112  A    between atoms: _258  and  _261
REMARK  113  A    between atoms: _261  and  _262
REMARK                            x       y       z     vdW  Elec       q    Type
REMARK                         _______ _______ _______ _____ _____    ______ ____
ROOT
ATOM      1  CA  ASN A   3       8.307   6.038  46.317  0.00  0.00    +0.158 C 
ENDROOT
BRANCH   1   4
ATOM      2  C   HIS A   2      10.003   4.915  47.595  0.00  0.00    +0.241 C 
ATOM      3  O   HIS A   2      10.697   5.931  47.580  0.00  0.00    -0.273 OA
ATOM      4  N   ASN A   3       8.791   4.881  47.055  0.00  0.00    -0.297 N 
ATOM      5  H   ASN A   3       8.193   4.036  47.158  0.00  0.00    +0.150 HD
BRANCH   2   6
ATOM      6  CA  HIS A   2      10.534   3.642  48.242  0.00  0.00    +0.155 C 
BRANCH   6   8
ATOM      7  C   GLY A   1      12.884   4.225  48.412  0.00  0.00    +0.240 C 
ATOM      8  N   HIS A   2      11.717   4.007  49.008  0.00  0.00    -0.297 N 
ATOM      9  H   HIS A   2      11.647   4.099  50.042  0.00  0.00    +0.150 HD
ATOM     10  O   GLY A   1      13.093   3.948  47.233  0.00  0.00    -0.274 OA
BRANCH   7  11
ATOM     11  CA  GLY A   1      13.981   4.833  49.267  0.00  0.00    +0.169 C 
BRANCH  11  12
ATOM     12  N   GLY A   1      13.530   5.195  50.599  0.00  0.00    -0.236 NA
ATOM     13  H   GLY A   1      13.104   6.131  50.757  0.00  0.00    +0.142 HD
ENDBRANCH  11  12
ENDBRANCH   7  11
ENDBRANCH   6   8
BRANCH   6  14
ATOM     14  CB  HIS A   2       9.483   2.979  49.132  0.00  0.00    +0.076 C 
BRANCH  14  15
ATOM     15  CG  HIS A   2       9.957   1.719  49.786  0.00  0.00    +0.082 A 
ATOM     16  ND1 HIS A   2       9.970   1.550  51.153  0.00  0.00    -0.227 NA
ATOM     17  CE1 HIS A   2      10.435   0.347  51.442  0.00  0.00    +0.199 A 
ATOM     18  NE2 HIS A   2      10.725  -0.269  50.311  0.00  0.00    -0.221 NA
ATOM     19  CD2 HIS A   2      10.435   0.566  49.259  0.00  0.00    +0.115 A 
ENDBRANCH  14  15
ENDBRANCH   6  14
ENDBRANCH   2   6
ENDBRANCH   1   4
BRANCH   1  20
ATOM     20  C   ASN A   3       6.799   6.126  46.177  0.00  0.00    +0.241 C 
ATOM     21  O   ASN A   3       6.073   5.170  46.454  0.00  0.00    -0.273 OA
ATOM     22  N   GLU A   4       6.350   7.302  45.749  0.00  0.00    -0.297 N 
ATOM     23  H   GLU A   4       7.025   8.088  45.654  0.00  0.00    +0.150 HD
BRANCH  22  24
ATOM     24  CA  GLU A   4       4.958   7.537  45.408  0.00  0.00    +0.149 C 
BRANCH  24  25
ATOM     25  C   GLU A   4       4.862   7.996  43.962  0.00  0.00    +0.241 C 
ATOM     26  O   GLU A   4       5.544   8.928  43.546  0.00  0.00    -0.273 OA
ATOM     27  N   PHE A   5       4.005   7.329  43.205  0.00  0.00    -0.298 N 
ATOM     28  H   PHE A   5       3.498   6.518  43.613  0.00  0.00    +0.150 HD
BRANCH  27  29
ATOM     29  CA  PHE A   5       3.749   7.695  41.820  0.00  0.00    +0.141 C 
BRANCH  29  30
ATOM     30  C   PHE A   5       2.909   8.972  41.737  0.00  0.00    +0.227 C 
ATOM     31  O   PHE A   5       1.870   9.080  42.389  0.00  0.00    -0.286 OA
ENDBRANCH  29  30
BRANCH  29  32
ATOM     32  CB  PHE A   5       3.049   6.535  41.114  0.00  0.00    +0.054 C 
BRANCH  32  33
ATOM     33  CG  PHE A   5       2.527   6.871  39.751  0.00  0.00    -0.020 A 
ATOM     34  CD2 PHE A   5       1.193   7.187  39.567  0.00  0.00    -0.004 A 
ATOM     35  CE2 PHE A   5       0.705   7.487  38.312  0.00  0.00    -0.000 A 
ATOM     36  CZ  PHE A   5       1.551   7.465  37.224  0.00  0.00    -0.000 A 
ATOM     37  CE1 PHE A   5       2.883   7.150  37.393  0.00  0.00    -0.000 A 
ATOM     38  CD1 PHE A   5       3.365   6.850  38.651  0.00  0.00    -0.004 A 
ENDBRANCH  32  33
ENDBRANCH  29  32
ENDBRANCH  27  29
ENDBRANCH  24  25
BRANCH  24  39
ATOM     39  CB  GLU A   4       4.327   8.581  46.329  0.00  0.00    +0.041 C 
BRANCH  39  40
ATOM     40  CG  GLU A   4       2.884   8.894  45.967  0.00  0.00    +0.116 C 
BRANCH  40  41
ATOM     41  CD  GLU A   4       2.126   9.555  47.096  0.00  0.00    +0.365 C 
ATOM     42  OE2 GLU A   4       2.766  10.257  47.906  0.00  0.00    -0.246 OA
ATOM     43  OE1 GLU A   4       0.892   9.365  47.175  0.00  0.00    -0.246 OA
ENDBRANCH  40  41
ENDBRANCH  39  40
ENDBRANCH  24  39
ENDBRANCH  22  24
ENDBRANCH   1  20
BRANCH   1  44
ATOM     44  CB  ASN A   3       8.931   6.051  44.923  0.00  0.00    +0.114 C 
BRANCH  44  45
ATOM     45  CG  ASN A   3       8.388   4.954  44.037  0.00  0.00    +0.222 C 
ATOM     46  ND2 ASN A   3       9.077   3.819  44.008  0.00  0.00    -0.329 N 
ATOM     47 HD21 ASN A   3       9.942   3.721  44.578  0.00  0.00    +0.145 HD
ATOM     48 HD22 ASN A   3       8.752   3.028  43.416  0.00  0.00    +0.145 HD
ATOM     49  OD1 ASN A   3       7.358   5.125  43.383  0.00  0.00    -0.275 OA
ENDBRANCH  44  45
ENDBRANCH   1  44
TORSDOF 19
REMARK  Name = ../refined-set-2016/4np9/4np9_pocket.pdb
REMARK  113 active torsions:
REMARK  status: ('A' for Active; 'I' for Inactive)
REMARK    1  A    between atoms: _1  and  _3
REMARK    2  A    between atoms: _3  and  _4
REMARK    3  A    between atoms: _3  and  _6
REMARK    4  A    between atoms: _6  and  _7
REMARK    5  A    between atoms: _12  and  _13
REMARK    6  A    between atoms: _15  and  _17
REMARK    7  A    between atoms: _17  and  _18
REMARK    8  A    between atoms: _17  and  _20
REMARK    9  A    between atoms: _23  and  _25
REMARK   10  A    between atoms: _25  and  _26
REMARK   11  A    between atoms: _25  and  _28
REMARK   12  A    between atoms: _28  and  _29
REMARK   13  A    between atoms: _29  and  _30
REMARK   14  A    between atoms: _30  and  _31
REMARK   15  A    between atoms: _31  and  _32
REMARK   16  A    between atoms: _36  and  _38
REMARK   17  A    between atoms: _38  and  _39
REMARK   18  A    between atoms: _38  and  _41
REMARK   19  A    between atoms: _41  and  _42
REMARK   20  A    between atoms: _45  and  _47
REMARK   21  A    between atoms: _47  and  _48
REMARK   22  A    between atoms: _47  and  _50
REMARK   23  A    between atoms: _50  and  _51
REMARK   24  A    between atoms: _56  and  _58
REMARK   25  A    between atoms: _58  and  _59
REMARK   26  A    between atoms: _58  and  _61
REMARK   27  A    between atoms: _61  and  _62
REMARK   28  A    between atoms: _64  and  _66
REMARK   29  A    between atoms: _66  and  _67
REMARK   30  A    between atoms: _66  and  _69
REMARK   31  A    between atoms: _69  and  _70
REMARK   32  A    between atoms: _70  and  _71
REMARK   33  A    between atoms: _71  and  _72
REMARK   34  A    between atoms: _72  and  _73
REMARK   35  A    between atoms: _77  and  _79
REMARK   36  A    between atoms: _79  and  _80
REMARK   37  A    between atoms: _79  and  _82
REMARK   38  A    between atoms: _82  and  _83
REMARK   39  A    between atoms: _88  and  _90
REMARK   40  A    between atoms: _90  and  _91
REMARK   41  A    between atoms: _90  and  _93
REMARK   42  A    between atoms: _93  and  _94
REMARK   43  A    between atoms: _94  and  _95
REMARK   44  A    between atoms: _95  and  _96
REMARK   45  A    between atoms: _96  and  _97
REMARK   46  A    between atoms: _101  and  _103
REMARK   47  A    between atoms: _103  and  _104
REMARK   48  A    between atoms: _103  and  _106
REMARK   49  A    between atoms: _106  and  _107
REMARK   50  A    between atoms: _110  and  _112
REMARK   51  A    between atoms: _112  and  _113
REMARK   52  A    between atoms: _112  and  _115
REMARK   53  A    between atoms: _115  and  _116
REMARK   54  A    between atoms: _116  and  _117
REMARK   55  A    between atoms: _117  and  _118
REMARK   56  A    between atoms: _127  and  _129
REMARK   57  A    between atoms: _129  and  _130
REMARK   58  A    between atoms: _129  and  _132
REMARK   59  A    between atoms: _132  and  _133
REMARK   60  A    between atoms: _136  and  _138
REMARK   61  A    between atoms: _138  and  _139
REMARK   62  A    between atoms: _138  and  _141
REMARK   63  A    between atoms: _141  and  _142
REMARK   64  A    between atoms: _145  and  _147
REMARK   65  A    between atoms: _147  and  _148
REMARK   66  A    between atoms: _147  and  _150
REMARK   67  A    between atoms: _150  and  _151
REMARK   68  A    between atoms: _156  and  _157
REMARK   69  A    between atoms: _159  and  _161
REMARK   70  A    between atoms: _161  and  _162
REMARK   71  A    between atoms: _161  and  _164
REMARK   72  A    between atoms: _164  and  _165
REMARK   73  A    between atoms: _165  and  _166
REMARK   74  A    between atoms: _166  and  _167
REMARK   75  A    between atoms: _176  and  _178
REMARK   76  A    between atoms: _178  and  _179
REMARK   77  A    between atoms: _178  and  _181
REMARK   78  A    between atoms: _181  and  _182
REMARK   79  A    between atoms: _184  and  _186
REMARK   80  A    between atoms: _186  and  _187
REMARK   81  A    between atoms: _186  and  _189
REMARK   82  A    between atoms: _191  and  _193
REMARK   83  A    between atoms: _193  and  _194
REMARK   84  A    between atoms: _193  and  _196
REMARK   85  A    between atoms: _196  and  _197
REMARK   86  A    between atoms: _200  and  _202
REMARK   87  A    between atoms: _202  and  _203
REMARK   88  A    between atoms: _202  and  _205
REMARK   89  A    between atoms: _205  and  _206
REMARK   90  A    between atoms: _206  and  _207
REMARK   91  A    between atoms: _210  and  _212
REMARK   92  A    between atoms: _212  and  _213
REMARK   93  A    between atoms: _212  and  _215
REMARK   94  A    between atoms: _215  and  _216
REMARK   95  A    between atoms: _219  and  _221
REMARK   96  A    between atoms: _221  and  _222
REMARK   97  A    between atoms: _224  and  _226
REMARK   98  A    between atoms: _226  and  _227
REMARK   99  A    between atoms: _226  and  _229
REMARK  100  A    between atoms: _229  and  _230
REMARK  101  A    between atoms: _235  and  _237
REMARK  102  A    between atoms: _237  and  _238
REMARK  103  A    between atoms: _237  and  _240
REMARK  104  A    between atoms: _240  and  _241
REMARK  105  A    between atoms: _246  and  _248
REMARK  106  A    between atoms: _248  and  _249
REMARK  107  A    between atoms: _248  and  _251
REMARK  108  A    between atoms: _251  and  _252
REMARK  109  A    between atoms: _252  and  _253
REMARK  110  A    between atoms: _256  and  _258
REMARK  111  A    between atoms: _258  and  _259
REMARK  112  A    between atoms: _258  and  _261
REMARK  113  A    between atoms: _261  and  _262
REMARK                            x       y       z     vdW  Elec       q    Type
REMARK                         _______ _______ _______ _____ _____    ______ ____
ROOT
ATOM      1  O   HOH     1       7.749   4.868  33.197  0.00  0.00    +0.000 OA
ENDROOT
TORSDOF 0
REMARK  Name = ../refined-set-2016/4np9/4np9_pocket.pdb
REMARK  113 active torsions:
REMARK  status: ('A' for Active; 'I' for Inactive)
REMARK    1  A    between atoms: _1  and  _3
REMARK    2  A    between atoms: _3  and  _4
REMARK    3  A    between atoms: _3  and  _6
REMARK    4  A    between atoms: _6  and  _7
REMARK    5  A    between atoms: _12  and  _13
REMARK    6  A    between atoms: _15  and  _17
REMARK    7  A    between atoms: _17  and  _18
REMARK    8  A    between atoms: _17  and  _20
REMARK    9  A    between atoms: _23  and  _25
REMARK   10  A    between atoms: _25  and  _26
REMARK   11  A    between atoms: _25  and  _28
REMARK   12  A    between atoms: _28  and  _29
REMARK   13  A    between atoms: _29  and  _30
REMARK   14  A    between atoms: _30  and  _31
REMARK   15  A    between atoms: _31  and  _32
REMARK   16  A    between atoms: _36  and  _38
REMARK   17  A    between atoms: _38  and  _39
REMARK   18  A    between atoms: _38  and  _41
REMARK   19  A    between atoms: _41  and  _42
REMARK   20  A    between atoms: _45  and  _47
REMARK   21  A    between atoms: _47  and  _48
REMARK   22  A    between atoms: _47  and  _50
REMARK   23  A    between atoms: _50  and  _51
REMARK   24  A    between atoms: _56  and  _58
REMARK   25  A    between atoms: _58  and  _59
REMARK   26  A    between atoms: _58  and  _61
REMARK   27  A    between atoms: _61  and  _62
REMARK   28  A    between atoms: _64  and  _66
REMARK   29  A    between atoms: _66  and  _67
REMARK   30  A    between atoms: _66  and  _69
REMARK   31  A    between atoms: _69  and  _70
REMARK   32  A    between atoms: _70  and  _71
REMARK   33  A    between atoms: _71  and  _72
REMARK   34  A    between atoms: _72  and  _73
REMARK   35  A    between atoms: _77  and  _79
REMARK   36  A    between atoms: _79  and  _80
REMARK   37  A    between atoms: _79  and  _82
REMARK   38  A    between atoms: _82  and  _83
REMARK   39  A    between atoms: _88  and  _90
REMARK   40  A    between atoms: _90  and  _91
REMARK   41  A    between atoms: _90  and  _93
REMARK   42  A    between atoms: _93  and  _94
REMARK   43  A    between atoms: _94  and  _95
REMARK   44  A    between atoms: _95  and  _96
REMARK   45  A    between atoms: _96  and  _97
REMARK   46  A    between atoms: _101  and  _103
REMARK   47  A    between atoms: _103  and  _104
REMARK   48  A    between atoms: _103  and  _106
REMARK   49  A    between atoms: _106  and  _107
REMARK   50  A    between atoms: _110  and  _112
REMARK   51  A    between atoms: _112  and  _113
REMARK   52  A    between atoms: _112  and  _115
REMARK   53  A    between atoms: _115  and  _116
REMARK   54  A    between atoms: _116  and  _117
REMARK   55  A    between atoms: _117  and  _118
REMARK   56  A    between atoms: _127  and  _129
REMARK   57  A    between atoms: _129  and  _130
REMARK   58  A    between atoms: _129  and  _132
REMARK   59  A    between atoms: _132  and  _133
REMARK   60  A    between atoms: _136  and  _138
REMARK   61  A    between atoms: _138  and  _139
REMARK   62  A    between atoms: _138  and  _141
REMARK   63  A    between atoms: _141  and  _142
REMARK   64  A    between atoms: _145  and  _147
REMARK   65  A    between atoms: _147  and  _148
REMARK   66  A    between atoms: _147  and  _150
REMARK   67  A    between atoms: _150  and  _151
REMARK   68  A    between atoms: _156  and  _157
REMARK   69  A    between atoms: _159  and  _161
REMARK   70  A    between atoms: _161  and  _162
REMARK   71  A    between atoms: _161  and  _164
REMARK   72  A    between atoms: _164  and  _165
REMARK   73  A    between atoms: _165  and  _166
REMARK   74  A    between atoms: _166  and  _167
REMARK   75  A    between atoms: _176  and  _178
REMARK   76  A    between atoms: _178  and  _179
REMARK   77  A    between atoms: _178  and  _181
REMARK   78  A    between atoms: _181  and  _182
REMARK   79  A    between atoms: _184  and  _186
REMARK   80  A    between atoms: _186  and  _187
REMARK   81  A    between atoms: _186  and  _189
REMARK   82  A    between atoms: _191  and  _193
REMARK   83  A    between atoms: _193  and  _194
REMARK   84  A    between atoms: _193  and  _196
REMARK   85  A    between atoms: _196  and  _197
REMARK   86  A    between atoms: _200  and  _202
REMARK   87  A    between atoms: _202  and  _203
REMARK   88  A    between atoms: _202  and  _205
REMARK   89  A    between atoms: _205  and  _206
REMARK   90  A    between atoms: _206  and  _207
REMARK   91  A    between atoms: _210  and  _212
REMARK   92  A    between atoms: _212  and  _213
REMARK   93  A    between atoms: _212  and  _215
REMARK   94  A    between atoms: _215  and  _216
REMARK   95  A    between atoms: _219  and  _221
REMARK   96  A    between atoms: _221  and  _222
REMARK   97  A    between atoms: _224  and  _226
REMARK   98  A    between atoms: _226  and  _227
REMARK   99  A    between atoms: _226  and  _229
REMARK  100  A    between atoms: _229  and  _230
REMARK  101  A    between atoms: _235  and  _237
REMARK  102  A    between atoms: _237  and  _238
REMARK  103  A    between atoms: _237  and  _240
REMARK  104  A    between atoms: _240  and  _241
REMARK  105  A    between atoms: _246  and  _248
REMARK  106  A    between atoms: _248  and  _249
REMARK  107  A    between atoms: _248  and  _251
REMARK  108  A    between atoms: _251  and  _252
REMARK  109  A    between atoms: _252  and  _253
REMARK  110  A    between atoms: _256  and  _258
REMARK  111  A    between atoms: _258  and  _259
REMARK  112  A    between atoms: _258  and  _261
REMARK  113  A    between atoms: _261  and  _262
REMARK                            x       y       z     vdW  Elec       q    Type
REMARK                         _______ _______ _______ _____ _____    ______ ____
ROOT
ATOM      1  O   HOH     1       2.859   5.001  44.426  0.00  0.00    +0.000 OA
ENDROOT
TORSDOF 0
REMARK  Name = ../refined-set-2016/4np9/4np9_pocket.pdb
REMARK  113 active torsions:
REMARK  status: ('A' for Active; 'I' for Inactive)
REMARK    1  A    between atoms: _1  and  _3
REMARK    2  A    between atoms: _3  and  _4
REMARK    3  A    between atoms: _3  and  _6
REMARK    4  A    between atoms: _6  and  _7
REMARK    5  A    between atoms: _12  and  _13
REMARK    6  A    between atoms: _15  and  _17
REMARK    7  A    between atoms: _17  and  _18
REMARK    8  A    between atoms: _17  and  _20
REMARK    9  A    between atoms: _23  and  _25
REMARK   10  A    between atoms: _25  and  _26
REMARK   11  A    between atoms: _25  and  _28
REMARK   12  A    between atoms: _28  and  _29
REMARK   13  A    between atoms: _29  and  _30
REMARK   14  A    between atoms: _30  and  _31
REMARK   15  A    between atoms: _31  and  _32
REMARK   16  A    between atoms: _36  and  _38
REMARK   17  A    between atoms: _38  and  _39
REMARK   18  A    between atoms: _38  and  _41
REMARK   19  A    between atoms: _41  and  _42
REMARK   20  A    between atoms: _45  and  _47
REMARK   21  A    between atoms: _47  and  _48
REMARK   22  A    between atoms: _47  and  _50
REMARK   23  A    between atoms: _50  and  _51
REMARK   24  A    between atoms: _56  and  _58
REMARK   25  A    between atoms: _58  and  _59
REMARK   26  A    between atoms: _58  and  _61
REMARK   27  A    between atoms: _61  and  _62
REMARK   28  A    between atoms: _64  and  _66
REMARK   29  A    between atoms: _66  and  _67
REMARK   30  A    between atoms: _66  and  _69
REMARK   31  A    between atoms: _69  and  _70
REMARK   32  A    between atoms: _70  and  _71
REMARK   33  A    between atoms: _71  and  _72
REMARK   34  A    between atoms: _72  and  _73
REMARK   35  A    between atoms: _77  and  _79
REMARK   36  A    between atoms: _79  and  _80
REMARK   37  A    between atoms: _79  and  _82
REMARK   38  A    between atoms: _82  and  _83
REMARK   39  A    between atoms: _88  and  _90
REMARK   40  A    between atoms: _90  and  _91
REMARK   41  A    between atoms: _90  and  _93
REMARK   42  A    between atoms: _93  and  _94
REMARK   43  A    between atoms: _94  and  _95
REMARK   44  A    between atoms: _95  and  _96
REMARK   45  A    between atoms: _96  and  _97
REMARK   46  A    between atoms: _101  and  _103
REMARK   47  A    between atoms: _103  and  _104
REMARK   48  A    between atoms: _103  and  _106
REMARK   49  A    between atoms: _106  and  _107
REMARK   50  A    between atoms: _110  and  _112
REMARK   51  A    between atoms: _112  and  _113
REMARK   52  A    between atoms: _112  and  _115
REMARK   53  A    between atoms: _115  and  _116
REMARK   54  A    between atoms: _116  and  _117
REMARK   55  A    between atoms: _117  and  _118
REMARK   56  A    between atoms: _127  and  _129
REMARK   57  A    between atoms: _129  and  _130
REMARK   58  A    between atoms: _129  and  _132
REMARK   59  A    between atoms: _132  and  _133
REMARK   60  A    between atoms: _136  and  _138
REMARK   61  A    between atoms: _138  and  _139
REMARK   62  A    between atoms: _138  and  _141
REMARK   63  A    between atoms: _141  and  _142
REMARK   64  A    between atoms: _145  and  _147
REMARK   65  A    between atoms: _147  and  _148
REMARK   66  A    between atoms: _147  and  _150
REMARK   67  A    between atoms: _150  and  _151
REMARK   68  A    between atoms: _156  and  _157
REMARK   69  A    between atoms: _159  and  _161
REMARK   70  A    between atoms: _161  and  _162
REMARK   71  A    between atoms: _161  and  _164
REMARK   72  A    between atoms: _164  and  _165
REMARK   73  A    between atoms: _165  and  _166
REMARK   74  A    between atoms: _166  and  _167
REMARK   75  A    between atoms: _176  and  _178
REMARK   76  A    between atoms: _178  and  _179
REMARK   77  A    between atoms: _178  and  _181
REMARK   78  A    between atoms: _181  and  _182
REMARK   79  A    between atoms: _184  and  _186
REMARK   80  A    between atoms: _186  and  _187
REMARK   81  A    between atoms: _186  and  _189
REMARK   82  A    between atoms: _191  and  _193
REMARK   83  A    between atoms: _193  and  _194
REMARK   84  A    between atoms: _193  and  _196
REMARK   85  A    between atoms: _196  and  _197
REMARK   86  A    between atoms: _200  and  _202
REMARK   87  A    between atoms: _202  and  _203
REMARK   88  A    between atoms: _202  and  _205
REMARK   89  A    between atoms: _205  and  _206
REMARK   90  A    between atoms: _206  and  _207
REMARK   91  A    between atoms: _210  and  _212
REMARK   92  A    between atoms: _212  and  _213
REMARK   93  A    between atoms: _212  and  _215
REMARK   94  A    between atoms: _215  and  _216
REMARK   95  A    between atoms: _219  and  _221
REMARK   96  A    between atoms: _221  and  _222
REMARK   97  A    between atoms: _224  and  _226
REMARK   98  A    between atoms: _226  and  _227
REMARK   99  A    between atoms: _226  and  _229
REMARK  100  A    between atoms: _229  and  _230
REMARK  101  A    between atoms: _235  and  _237
REMARK  102  A    between atoms: _237  and  _238
REMARK  103  A    between atoms: _237  and  _240
REMARK  104  A    between atoms: _240  and  _241
REMARK  105  A    between atoms: _246  and  _248
REMARK  106  A    between atoms: _248  and  _249
REMARK  107  A    between atoms: _248  and  _251
REMARK  108  A    between atoms: _251  and  _252
REMARK  109  A    between atoms: _252  and  _253
REMARK  110  A    between atoms: _256  and  _258
REMARK  111  A    between atoms: _258  and  _259
REMARK  112  A    between atoms: _258  and  _261
REMARK  113  A    between atoms: _261  and  _262
REMARK                            x       y       z     vdW  Elec       q    Type
REMARK                         _______ _______ _______ _____ _____    ______ ____
ROOT
ATOM      1  O   HOH     1      12.238   2.942  34.662  0.00  0.00    +0.000 OA
ENDROOT
TORSDOF 0
REMARK  Name = ../refined-set-2016/4np9/4np9_pocket.pdb
REMARK  113 active torsions:
REMARK  status: ('A' for Active; 'I' for Inactive)
REMARK    1  A    between atoms: _1  and  _3
REMARK    2  A    between atoms: _3  and  _4
REMARK    3  A    between atoms: _3  and  _6
REMARK    4  A    between atoms: _6  and  _7
REMARK    5  A    between atoms: _12  and  _13
REMARK    6  A    between atoms: _15  and  _17
REMARK    7  A    between atoms: _17  and  _18
REMARK    8  A    between atoms: _17  and  _20
REMARK    9  A    between atoms: _23  and  _25
REMARK   10  A    between atoms: _25  and  _26
REMARK   11  A    between atoms: _25  and  _28
REMARK   12  A    between atoms: _28  and  _29
REMARK   13  A    between atoms: _29  and  _30
REMARK   14  A    between atoms: _30  and  _31
REMARK   15  A    between atoms: _31  and  _32
REMARK   16  A    between atoms: _36  and  _38
REMARK   17  A    between atoms: _38  and  _39
REMARK   18  A    between atoms: _38  and  _41
REMARK   19  A    between atoms: _41  and  _42
REMARK   20  A    between atoms: _45  and  _47
REMARK   21  A    between atoms: _47  and  _48
REMARK   22  A    between atoms: _47  and  _50
REMARK   23  A    between atoms: _50  and  _51
REMARK   24  A    between atoms: _56  and  _58
REMARK   25  A    between atoms: _58  and  _59
REMARK   26  A    between atoms: _58  and  _61
REMARK   27  A    between atoms: _61  and  _62
REMARK   28  A    between atoms: _64  and  _66
REMARK   29  A    between atoms: _66  and  _67
REMARK   30  A    between atoms: _66  and  _69
REMARK   31  A    between atoms: _69  and  _70
REMARK   32  A    between atoms: _70  and  _71
REMARK   33  A    between atoms: _71  and  _72
REMARK   34  A    between atoms: _72  and  _73
REMARK   35  A    between atoms: _77  and  _79
REMARK   36  A    between atoms: _79  and  _80
REMARK   37  A    between atoms: _79  and  _82
REMARK   38  A    between atoms: _82  and  _83
REMARK   39  A    between atoms: _88  and  _90
REMARK   40  A    between atoms: _90  and  _91
REMARK   41  A    between atoms: _90  and  _93
REMARK   42  A    between atoms: _93  and  _94
REMARK   43  A    between atoms: _94  and  _95
REMARK   44  A    between atoms: _95  and  _96
REMARK   45  A    between atoms: _96  and  _97
REMARK   46  A    between atoms: _101  and  _103
REMARK   47  A    between atoms: _103  and  _104
REMARK   48  A    between atoms: _103  and  _106
REMARK   49  A    between atoms: _106  and  _107
REMARK   50  A    between atoms: _110  and  _112
REMARK   51  A    between atoms: _112  and  _113
REMARK   52  A    between atoms: _112  and  _115
REMARK   53  A    between atoms: _115  and  _116
REMARK   54  A    between atoms: _116  and  _117
REMARK   55  A    between atoms: _117  and  _118
REMARK   56  A    between atoms: _127  and  _129
REMARK   57  A    between atoms: _129  and  _130
REMARK   58  A    between atoms: _129  and  _132
REMARK   59  A    between atoms: _132  and  _133
REMARK   60  A    between atoms: _136  and  _138
REMARK   61  A    between atoms: _138  and  _139
REMARK   62  A    between atoms: _138  and  _141
REMARK   63  A    between atoms: _141  and  _142
REMARK   64  A    between atoms: _145  and  _147
REMARK   65  A    between atoms: _147  and  _148
REMARK   66  A    between atoms: _147  and  _150
REMARK   67  A    between atoms: _150  and  _151
REMARK   68  A    between atoms: _156  and  _157
REMARK   69  A    between atoms: _159  and  _161
REMARK   70  A    between atoms: _161  and  _162
REMARK   71  A    between atoms: _161  and  _164
REMARK   72  A    between atoms: _164  and  _165
REMARK   73  A    between atoms: _165  and  _166
REMARK   74  A    between atoms: _166  and  _167
REMARK   75  A    between atoms: _176  and  _178
REMARK   76  A    between atoms: _178  and  _179
REMARK   77  A    between atoms: _178  and  _181
REMARK   78  A    between atoms: _181  and  _182
REMARK   79  A    between atoms: _184  and  _186
REMARK   80  A    between atoms: _186  and  _187
REMARK   81  A    between atoms: _186  and  _189
REMARK   82  A    between atoms: _191  and  _193
REMARK   83  A    between atoms: _193  and  _194
REMARK   84  A    between atoms: _193  and  _196
REMARK   85  A    between atoms: _196  and  _197
REMARK   86  A    between atoms: _200  and  _202
REMARK   87  A    between atoms: _202  and  _203
REMARK   88  A    between atoms: _202  and  _205
REMARK   89  A    between atoms: _205  and  _206
REMARK   90  A    between atoms: _206  and  _207
REMARK   91  A    between atoms: _210  and  _212
REMARK   92  A    between atoms: _212  and  _213
REMARK   93  A    between atoms: _212  and  _215
REMARK   94  A    between atoms: _215  and  _216
REMARK   95  A    between atoms: _219  and  _221
REMARK   96  A    between atoms: _221  and  _222
REMARK   97  A    between atoms: _224  and  _226
REMARK   98  A    between atoms: _226  and  _227
REMARK   99  A    between atoms: _226  and  _229
REMARK  100  A    between atoms: _229  and  _230
REMARK  101  A    between atoms: _235  and  _237
REMARK  102  A    between atoms: _237  and  _238
REMARK  103  A    between atoms: _237  and  _240
REMARK  104  A    between atoms: _240  and  _241
REMARK  105  A    between atoms: _246  and  _248
REMARK  106  A    between atoms: _248  and  _249
REMARK  107  A    between atoms: _248  and  _251
REMARK  108  A    between atoms: _251  and  _252
REMARK  109  A    between atoms: _252  and  _253
REMARK  110  A    between atoms: _256  and  _258
REMARK  111  A    between atoms: _258  and  _259
REMARK  112  A    between atoms: _258  and  _261
REMARK  113  A    between atoms: _261  and  _262
REMARK                            x       y       z     vdW  Elec       q    Type
REMARK                         _______ _______ _______ _____ _____    ______ ____
ROOT
ATOM      1  O   HOH     1      13.132   5.937  44.621  0.00  0.00    +0.000 OA
ENDROOT
TORSDOF 0
REMARK  Name = ../refined-set-2016/4np9/4np9_pocket.pdb
REMARK  113 active torsions:
REMARK  status: ('A' for Active; 'I' for Inactive)
REMARK    1  A    between atoms: _1  and  _3
REMARK    2  A    between atoms: _3  and  _4
REMARK    3  A    between atoms: _3  and  _6
REMARK    4  A    between atoms: _6  and  _7
REMARK    5  A    between atoms: _12  and  _13
REMARK    6  A    between atoms: _15  and  _17
REMARK    7  A    between atoms: _17  and  _18
REMARK    8  A    between atoms: _17  and  _20
REMARK    9  A    between atoms: _23  and  _25
REMARK   10  A    between atoms: _25  and  _26
REMARK   11  A    between atoms: _25  and  _28
REMARK   12  A    between atoms: _28  and  _29
REMARK   13  A    between atoms: _29  and  _30
REMARK   14  A    between atoms: _30  and  _31
REMARK   15  A    between atoms: _31  and  _32
REMARK   16  A    between atoms: _36  and  _38
REMARK   17  A    between atoms: _38  and  _39
REMARK   18  A    between atoms: _38  and  _41
REMARK   19  A    between atoms: _41  and  _42
REMARK   20  A    between atoms: _45  and  _47
REMARK   21  A    between atoms: _47  and  _48
REMARK   22  A    between atoms: _47  and  _50
REMARK   23  A    between atoms: _50  and  _51
REMARK   24  A    between atoms: _56  and  _58
REMARK   25  A    between atoms: _58  and  _59
REMARK   26  A    between atoms: _58  and  _61
REMARK   27  A    between atoms: _61  and  _62
REMARK   28  A    between atoms: _64  and  _66
REMARK   29  A    between atoms: _66  and  _67
REMARK   30  A    between atoms: _66  and  _69
REMARK   31  A    between atoms: _69  and  _70
REMARK   32  A    between atoms: _70  and  _71
REMARK   33  A    between atoms: _71  and  _72
REMARK   34  A    between atoms: _72  and  _73
REMARK   35  A    between atoms: _77  and  _79
REMARK   36  A    between atoms: _79  and  _80
REMARK   37  A    between atoms: _79  and  _82
REMARK   38  A    between atoms: _82  and  _83
REMARK   39  A    between atoms: _88  and  _90
REMARK   40  A    between atoms: _90  and  _91
REMARK   41  A    between atoms: _90  and  _93
REMARK   42  A    between atoms: _93  and  _94
REMARK   43  A    between atoms: _94  and  _95
REMARK   44  A    between atoms: _95  and  _96
REMARK   45  A    between atoms: _96  and  _97
REMARK   46  A    between atoms: _101  and  _103
REMARK   47  A    between atoms: _103  and  _104
REMARK   48  A    between atoms: _103  and  _106
REMARK   49  A    between atoms: _106  and  _107
REMARK   50  A    between atoms: _110  and  _112
REMARK   51  A    between atoms: _112  and  _113
REMARK   52  A    between atoms: _112  and  _115
REMARK   53  A    between atoms: _115  and  _116
REMARK   54  A    between atoms: _116  and  _117
REMARK   55  A    between atoms: _117  and  _118
REMARK   56  A    between atoms: _127  and  _129
REMARK   57  A    between atoms: _129  and  _130
REMARK   58  A    between atoms: _129  and  _132
REMARK   59  A    between atoms: _132  and  _133
REMARK   60  A    between atoms: _136  and  _138
REMARK   61  A    between atoms: _138  and  _139
REMARK   62  A    between atoms: _138  and  _141
REMARK   63  A    between atoms: _141  and  _142
REMARK   64  A    between atoms: _145  and  _147
REMARK   65  A    between atoms: _147  and  _148
REMARK   66  A    between atoms: _147  and  _150
REMARK   67  A    between atoms: _150  and  _151
REMARK   68  A    between atoms: _156  and  _157
REMARK   69  A    between atoms: _159  and  _161
REMARK   70  A    between atoms: _161  and  _162
REMARK   71  A    between atoms: _161  and  _164
REMARK   72  A    between atoms: _164  and  _165
REMARK   73  A    between atoms: _165  and  _166
REMARK   74  A    between atoms: _166  and  _167
REMARK   75  A    between atoms: _176  and  _178
REMARK   76  A    between atoms: _178  and  _179
REMARK   77  A    between atoms: _178  and  _181
REMARK   78  A    between atoms: _181  and  _182
REMARK   79  A    between atoms: _184  and  _186
REMARK   80  A    between atoms: _186  and  _187
REMARK   81  A    between atoms: _186  and  _189
REMARK   82  A    between atoms: _191  and  _193
REMARK   83  A    between atoms: _193  and  _194
REMARK   84  A    between atoms: _193  and  _196
REMARK   85  A    between atoms: _196  and  _197
REMARK   86  A    between atoms: _200  and  _202
REMARK   87  A    between atoms: _202  and  _203
REMARK   88  A    between atoms: _202  and  _205
REMARK   89  A    between atoms: _205  and  _206
REMARK   90  A    between atoms: _206  and  _207
REMARK   91  A    between atoms: _210  and  _212
REMARK   92  A    between atoms: _212  and  _213
REMARK   93  A    between atoms: _212  and  _215
REMARK   94  A    between atoms: _215  and  _216
REMARK   95  A    between atoms: _219  and  _221
REMARK   96  A    between atoms: _221  and  _222
REMARK   97  A    between atoms: _224  and  _226
REMARK   98  A    between atoms: _226  and  _227
REMARK   99  A    between atoms: _226  and  _229
REMARK  100  A    between atoms: _229  and  _230
REMARK  101  A    between atoms: _235  and  _237
REMARK  102  A    between atoms: _237  and  _238
REMARK  103  A    between atoms: _237  and  _240
REMARK  104  A    between atoms: _240  and  _241
REMARK  105  A    between atoms: _246  and  _248
REMARK  106  A    between atoms: _248  and  _249
REMARK  107  A    between atoms: _248  and  _251
REMARK  108  A    between atoms: _251  and  _252
REMARK  109  A    between atoms: _252  and  _253
REMARK  110  A    between atoms: _256  and  _258
REMARK  111  A    between atoms: _258  and  _259
REMARK  112  A    between atoms: _258  and  _261
REMARK  113  A    between atoms: _261  and  _262
REMARK                            x       y       z     vdW  Elec       q    Type
REMARK                         _______ _______ _______ _____ _____    ______ ____
ROOT
ATOM      1  O   HOH     1      17.247   0.662  35.002  0.00  0.00    +0.000 OA
ENDROOT
TORSDOF 0
REMARK  Name = ../refined-set-2016/4np9/4np9_pocket.pdb
REMARK  113 active torsions:
REMARK  status: ('A' for Active; 'I' for Inactive)
REMARK    1  A    between atoms: _1  and  _3
REMARK    2  A    between atoms: _3  and  _4
REMARK    3  A    between atoms: _3  and  _6
REMARK    4  A    between atoms: _6  and  _7
REMARK    5  A    between atoms: _12  and  _13
REMARK    6  A    between atoms: _15  and  _17
REMARK    7  A    between atoms: _17  and  _18
REMARK    8  A    between atoms: _17  and  _20
REMARK    9  A    between atoms: _23  and  _25
REMARK   10  A    between atoms: _25  and  _26
REMARK   11  A    between atoms: _25  and  _28
REMARK   12  A    between atoms: _28  and  _29
REMARK   13  A    between atoms: _29  and  _30
REMARK   14  A    between atoms: _30  and  _31
REMARK   15  A    between atoms: _31  and  _32
REMARK   16  A    between atoms: _36  and  _38
REMARK   17  A    between atoms: _38  and  _39
REMARK   18  A    between atoms: _38  and  _41
REMARK   19  A    between atoms: _41  and  _42
REMARK   20  A    between atoms: _45  and  _47
REMARK   21  A    between atoms: _47  and  _48
REMARK   22  A    between atoms: _47  and  _50
REMARK   23  A    between atoms: _50  and  _51
REMARK   24  A    between atoms: _56  and  _58
REMARK   25  A    between atoms: _58  and  _59
REMARK   26  A    between atoms: _58  and  _61
REMARK   27  A    between atoms: _61  and  _62
REMARK   28  A    between atoms: _64  and  _66
REMARK   29  A    between atoms: _66  and  _67
REMARK   30  A    between atoms: _66  and  _69
REMARK   31  A    between atoms: _69  and  _70
REMARK   32  A    between atoms: _70  and  _71
REMARK   33  A    between atoms: _71  and  _72
REMARK   34  A    between atoms: _72  and  _73
REMARK   35  A    between atoms: _77  and  _79
REMARK   36  A    between atoms: _79  and  _80
REMARK   37  A    between atoms: _79  and  _82
REMARK   38  A    between atoms: _82  and  _83
REMARK   39  A    between atoms: _88  and  _90
REMARK   40  A    between atoms: _90  and  _91
REMARK   41  A    between atoms: _90  and  _93
REMARK   42  A    between atoms: _93  and  _94
REMARK   43  A    between atoms: _94  and  _95
REMARK   44  A    between atoms: _95  and  _96
REMARK   45  A    between atoms: _96  and  _97
REMARK   46  A    between atoms: _101  and  _103
REMARK   47  A    between atoms: _103  and  _104
REMARK   48  A    between atoms: _103  and  _106
REMARK   49  A    between atoms: _106  and  _107
REMARK   50  A    between atoms: _110  and  _112
REMARK   51  A    between atoms: _112  and  _113
REMARK   52  A    between atoms: _112  and  _115
REMARK   53  A    between atoms: _115  and  _116
REMARK   54  A    between atoms: _116  and  _117
REMARK   55  A    between atoms: _117  and  _118
REMARK   56  A    between atoms: _127  and  _129
REMARK   57  A    between atoms: _129  and  _130
REMARK   58  A    between atoms: _129  and  _132
REMARK   59  A    between atoms: _132  and  _133
REMARK   60  A    between atoms: _136  and  _138
REMARK   61  A    between atoms: _138  and  _139
REMARK   62  A    between atoms: _138  and  _141
REMARK   63  A    between atoms: _141  and  _142
REMARK   64  A    between atoms: _145  and  _147
REMARK   65  A    between atoms: _147  and  _148
REMARK   66  A    between atoms: _147  and  _150
REMARK   67  A    between atoms: _150  and  _151
REMARK   68  A    between atoms: _156  and  _157
REMARK   69  A    between atoms: _159  and  _161
REMARK   70  A    between atoms: _161  and  _162
REMARK   71  A    between atoms: _161  and  _164
REMARK   72  A    between atoms: _164  and  _165
REMARK   73  A    between atoms: _165  and  _166
REMARK   74  A    between atoms: _166  and  _167
REMARK   75  A    between atoms: _176  and  _178
REMARK   76  A    between atoms: _178  and  _179
REMARK   77  A    between atoms: _178  and  _181
REMARK   78  A    between atoms: _181  and  _182
REMARK   79  A    between atoms: _184  and  _186
REMARK   80  A    between atoms: _186  and  _187
REMARK   81  A    between atoms: _186  and  _189
REMARK   82  A    between atoms: _191  and  _193
REMARK   83  A    between atoms: _193  and  _194
REMARK   84  A    between atoms: _193  and  _196
REMARK   85  A    between atoms: _196  and  _197
REMARK   86  A    between atoms: _200  and  _202
REMARK   87  A    between atoms: _202  and  _203
REMARK   88  A    between atoms: _202  and  _205
REMARK   89  A    between atoms: _205  and  _206
REMARK   90  A    between atoms: _206  and  _207
REMARK   91  A    between atoms: _210  and  _212
REMARK   92  A    between atoms: _212  and  _213
REMARK   93  A    between atoms: _212  and  _215
REMARK   94  A    between atoms: _215  and  _216
REMARK   95  A    between atoms: _219  and  _221
REMARK   96  A    between atoms: _221  and  _222
REMARK   97  A    between atoms: _224  and  _226
REMARK   98  A    between atoms: _226  and  _227
REMARK   99  A    between atoms: _226  and  _229
REMARK  100  A    between atoms: _229  and  _230
REMARK  101  A    between atoms: _235  and  _237
REMARK  102  A    between atoms: _237  and  _238
REMARK  103  A    between atoms: _237  and  _240
REMARK  104  A    between atoms: _240  and  _241
REMARK  105  A    between atoms: _246  and  _248
REMARK  106  A    between atoms: _248  and  _249
REMARK  107  A    between atoms: _248  and  _251
REMARK  108  A    between atoms: _251  and  _252
REMARK  109  A    between atoms: _252  and  _253
REMARK  110  A    between atoms: _256  and  _258
REMARK  111  A    between atoms: _258  and  _259
REMARK  112  A    between atoms: _258  and  _261
REMARK  113  A    between atoms: _261  and  _262
REMARK                            x       y       z     vdW  Elec       q    Type
REMARK                         _______ _______ _______ _____ _____    ______ ____
ROOT
ATOM      1  O   HOH     1      14.617  -0.005  42.195  0.00  0.00    +0.000 OA
ENDROOT
TORSDOF 0
REMARK  Name = ../refined-set-2016/4np9/4np9_pocket.pdb
REMARK  113 active torsions:
REMARK  status: ('A' for Active; 'I' for Inactive)
REMARK    1  A    between atoms: _1  and  _3
REMARK    2  A    between atoms: _3  and  _4
REMARK    3  A    between atoms: _3  and  _6
REMARK    4  A    between atoms: _6  and  _7
REMARK    5  A    between atoms: _12  and  _13
REMARK    6  A    between atoms: _15  and  _17
REMARK    7  A    between atoms: _17  and  _18
REMARK    8  A    between atoms: _17  and  _20
REMARK    9  A    between atoms: _23  and  _25
REMARK   10  A    between atoms: _25  and  _26
REMARK   11  A    between atoms: _25  and  _28
REMARK   12  A    between atoms: _28  and  _29
REMARK   13  A    between atoms: _29  and  _30
REMARK   14  A    between atoms: _30  and  _31
REMARK   15  A    between atoms: _31  and  _32
REMARK   16  A    between atoms: _36  and  _38
REMARK   17  A    between atoms: _38  and  _39
REMARK   18  A    between atoms: _38  and  _41
REMARK   19  A    between atoms: _41  and  _42
REMARK   20  A    between atoms: _45  and  _47
REMARK   21  A    between atoms: _47  and  _48
REMARK   22  A    between atoms: _47  and  _50
REMARK   23  A    between atoms: _50  and  _51
REMARK   24  A    between atoms: _56  and  _58
REMARK   25  A    between atoms: _58  and  _59
REMARK   26  A    between atoms: _58  and  _61
REMARK   27  A    between atoms: _61  and  _62
REMARK   28  A    between atoms: _64  and  _66
REMARK   29  A    between atoms: _66  and  _67
REMARK   30  A    between atoms: _66  and  _69
REMARK   31  A    between atoms: _69  and  _70
REMARK   32  A    between atoms: _70  and  _71
REMARK   33  A    between atoms: _71  and  _72
REMARK   34  A    between atoms: _72  and  _73
REMARK   35  A    between atoms: _77  and  _79
REMARK   36  A    between atoms: _79  and  _80
REMARK   37  A    between atoms: _79  and  _82
REMARK   38  A    between atoms: _82  and  _83
REMARK   39  A    between atoms: _88  and  _90
REMARK   40  A    between atoms: _90  and  _91
REMARK   41  A    between atoms: _90  and  _93
REMARK   42  A    between atoms: _93  and  _94
REMARK   43  A    between atoms: _94  and  _95
REMARK   44  A    between atoms: _95  and  _96
REMARK   45  A    between atoms: _96  and  _97
REMARK   46  A    between atoms: _101  and  _103
REMARK   47  A    between atoms: _103  and  _104
REMARK   48  A    between atoms: _103  and  _106
REMARK   49  A    between atoms: _106  and  _107
REMARK   50  A    between atoms: _110  and  _112
REMARK   51  A    between atoms: _112  and  _113
REMARK   52  A    between atoms: _112  and  _115
REMARK   53  A    between atoms: _115  and  _116
REMARK   54  A    between atoms: _116  and  _117
REMARK   55  A    between atoms: _117  and  _118
REMARK   56  A    between atoms: _127  and  _129
REMARK   57  A    between atoms: _129  and  _130
REMARK   58  A    between atoms: _129  and  _132
REMARK   59  A    between atoms: _132  and  _133
REMARK   60  A    between atoms: _136  and  _138
REMARK   61  A    between atoms: _138  and  _139
REMARK   62  A    between atoms: _138  and  _141
REMARK   63  A    between atoms: _141  and  _142
REMARK   64  A    between atoms: _145  and  _147
REMARK   65  A    between atoms: _147  and  _148
REMARK   66  A    between atoms: _147  and  _150
REMARK   67  A    between atoms: _150  and  _151
REMARK   68  A    between atoms: _156  and  _157
REMARK   69  A    between atoms: _159  and  _161
REMARK   70  A    between atoms: _161  and  _162
REMARK   71  A    between atoms: _161  and  _164
REMARK   72  A    between atoms: _164  and  _165
REMARK   73  A    between atoms: _165  and  _166
REMARK   74  A    between atoms: _166  and  _167
REMARK   75  A    between atoms: _176  and  _178
REMARK   76  A    between atoms: _178  and  _179
REMARK   77  A    between atoms: _178  and  _181
REMARK   78  A    between atoms: _181  and  _182
REMARK   79  A    between atoms: _184  and  _186
REMARK   80  A    between atoms: _186  and  _187
REMARK   81  A    between atoms: _186  and  _189
REMARK   82  A    between atoms: _191  and  _193
REMARK   83  A    between atoms: _193  and  _194
REMARK   84  A    between atoms: _193  and  _196
REMARK   85  A    between atoms: _196  and  _197
REMARK   86  A    between atoms: _200  and  _202
REMARK   87  A    between atoms: _202  and  _203
REMARK   88  A    between atoms: _202  and  _205
REMARK   89  A    between atoms: _205  and  _206
REMARK   90  A    between atoms: _206  and  _207
REMARK   91  A    between atoms: _210  and  _212
REMARK   92  A    between atoms: _212  and  _213
REMARK   93  A    between atoms: _212  and  _215
REMARK   94  A    between atoms: _215  and  _216
REMARK   95  A    between atoms: _219  and  _221
REMARK   96  A    between atoms: _221  and  _222
REMARK   97  A    between atoms: _224  and  _226
REMARK   98  A    between atoms: _226  and  _227
REMARK   99  A    between atoms: _226  and  _229
REMARK  100  A    between atoms: _229  and  _230
REMARK  101  A    between atoms: _235  and  _237
REMARK  102  A    between atoms: _237  and  _238
REMARK  103  A    between atoms: _237  and  _240
REMARK  104  A    between atoms: _240  and  _241
REMARK  105  A    between atoms: _246  and  _248
REMARK  106  A    between atoms: _248  and  _249
REMARK  107  A    between atoms: _248  and  _251
REMARK  108  A    between atoms: _251  and  _252
REMARK  109  A    between atoms: _252  and  _253
REMARK  110  A    between atoms: _256  and  _258
REMARK  111  A    between atoms: _258  and  _259
REMARK  112  A    between atoms: _258  and  _261
REMARK  113  A    between atoms: _261  and  _262
REMARK                            x       y       z     vdW  Elec       q    Type
REMARK                         _______ _______ _______ _____ _____    ______ ____
ROOT
ATOM      1  O   HOH     1       7.825  -2.910  35.355  0.00  0.00    +0.000 OA
ENDROOT
TORSDOF 0
REMARK  Name = ../refined-set-2016/4np9/4np9_pocket.pdb
REMARK  113 active torsions:
REMARK  status: ('A' for Active; 'I' for Inactive)
REMARK    1  A    between atoms: _1  and  _3
REMARK    2  A    between atoms: _3  and  _4
REMARK    3  A    between atoms: _3  and  _6
REMARK    4  A    between atoms: _6  and  _7
REMARK    5  A    between atoms: _12  and  _13
REMARK    6  A    between atoms: _15  and  _17
REMARK    7  A    between atoms: _17  and  _18
REMARK    8  A    between atoms: _17  and  _20
REMARK    9  A    between atoms: _23  and  _25
REMARK   10  A    between atoms: _25  and  _26
REMARK   11  A    between atoms: _25  and  _28
REMARK   12  A    between atoms: _28  and  _29
REMARK   13  A    between atoms: _29  and  _30
REMARK   14  A    between atoms: _30  and  _31
REMARK   15  A    between atoms: _31  and  _32
REMARK   16  A    between atoms: _36  and  _38
REMARK   17  A    between atoms: _38  and  _39
REMARK   18  A    between atoms: _38  and  _41
REMARK   19  A    between atoms: _41  and  _42
REMARK   20  A    between atoms: _45  and  _47
REMARK   21  A    between atoms: _47  and  _48
REMARK   22  A    between atoms: _47  and  _50
REMARK   23  A    between atoms: _50  and  _51
REMARK   24  A    between atoms: _56  and  _58
REMARK   25  A    between atoms: _58  and  _59
REMARK   26  A    between atoms: _58  and  _61
REMARK   27  A    between atoms: _61  and  _62
REMARK   28  A    between atoms: _64  and  _66
REMARK   29  A    between atoms: _66  and  _67
REMARK   30  A    between atoms: _66  and  _69
REMARK   31  A    between atoms: _69  and  _70
REMARK   32  A    between atoms: _70  and  _71
REMARK   33  A    between atoms: _71  and  _72
REMARK   34  A    between atoms: _72  and  _73
REMARK   35  A    between atoms: _77  and  _79
REMARK   36  A    between atoms: _79  and  _80
REMARK   37  A    between atoms: _79  and  _82
REMARK   38  A    between atoms: _82  and  _83
REMARK   39  A    between atoms: _88  and  _90
REMARK   40  A    between atoms: _90  and  _91
REMARK   41  A    between atoms: _90  and  _93
REMARK   42  A    between atoms: _93  and  _94
REMARK   43  A    between atoms: _94  and  _95
REMARK   44  A    between atoms: _95  and  _96
REMARK   45  A    between atoms: _96  and  _97
REMARK   46  A    between atoms: _101  and  _103
REMARK   47  A    between atoms: _103  and  _104
REMARK   48  A    between atoms: _103  and  _106
REMARK   49  A    between atoms: _106  and  _107
REMARK   50  A    between atoms: _110  and  _112
REMARK   51  A    between atoms: _112  and  _113
REMARK   52  A    between atoms: _112  and  _115
REMARK   53  A    between atoms: _115  and  _116
REMARK   54  A    between atoms: _116  and  _117
REMARK   55  A    between atoms: _117  and  _118
REMARK   56  A    between atoms: _127  and  _129
REMARK   57  A    between atoms: _129  and  _130
REMARK   58  A    between atoms: _129  and  _132
REMARK   59  A    between atoms: _132  and  _133
REMARK   60  A    between atoms: _136  and  _138
REMARK   61  A    between atoms: _138  and  _139
REMARK   62  A    between atoms: _138  and  _141
REMARK   63  A    between atoms: _141  and  _142
REMARK   64  A    between atoms: _145  and  _147
REMARK   65  A    between atoms: _147  and  _148
REMARK   66  A    between atoms: _147  and  _150
REMARK   67  A    between atoms: _150  and  _151
REMARK   68  A    between atoms: _156  and  _157
REMARK   69  A    between atoms: _159  and  _161
REMARK   70  A    between atoms: _161  and  _162
REMARK   71  A    between atoms: _161  and  _164
REMARK   72  A    between atoms: _164  and  _165
REMARK   73  A    between atoms: _165  and  _166
REMARK   74  A    between atoms: _166  and  _167
REMARK   75  A    between atoms: _176  and  _178
REMARK   76  A    between atoms: _178  and  _179
REMARK   77  A    between atoms: _178  and  _181
REMARK   78  A    between atoms: _181  and  _182
REMARK   79  A    between atoms: _184  and  _186
REMARK   80  A    between atoms: _186  and  _187
REMARK   81  A    between atoms: _186  and  _189
REMARK   82  A    between atoms: _191  and  _193
REMARK   83  A    between atoms: _193  and  _194
REMARK   84  A    between atoms: _193  and  _196
REMARK   85  A    between atoms: _196  and  _197
REMARK   86  A    between atoms: _200  and  _202
REMARK   87  A    between atoms: _202  and  _203
REMARK   88  A    between atoms: _202  and  _205
REMARK   89  A    between atoms: _205  and  _206
REMARK   90  A    between atoms: _206  and  _207
REMARK   91  A    between atoms: _210  and  _212
REMARK   92  A    between atoms: _212  and  _213
REMARK   93  A    between atoms: _212  and  _215
REMARK   94  A    between atoms: _215  and  _216
REMARK   95  A    between atoms: _219  and  _221
REMARK   96  A    between atoms: _221  and  _222
REMARK   97  A    between atoms: _224  and  _226
REMARK   98  A    between atoms: _226  and  _227
REMARK   99  A    between atoms: _226  and  _229
REMARK  100  A    between atoms: _229  and  _230
REMARK  101  A    between atoms: _235  and  _237
REMARK  102  A    between atoms: _237  and  _238
REMARK  103  A    between atoms: _237  and  _240
REMARK  104  A    between atoms: _240  and  _241
REMARK  105  A    between atoms: _246  and  _248
REMARK  106  A    between atoms: _248  and  _249
REMARK  107  A    between atoms: _248  and  _251
REMARK  108  A    between atoms: _251  and  _252
REMARK  109  A    between atoms: _252  and  _253
REMARK  110  A    between atoms: _256  and  _258
REMARK  111  A    between atoms: _258  and  _259
REMARK  112  A    between atoms: _258  and  _261
REMARK  113  A    between atoms: _261  and  _262
REMARK                            x       y       z     vdW  Elec       q    Type
REMARK                         _______ _______ _______ _____ _____    ______ ____
ROOT
ATOM      1  O   HOH     1       9.301  -3.662  33.208  0.00  0.00    +0.000 OA
ENDROOT
TORSDOF 0
REMARK  Name = ../refined-set-2016/4np9/4np9_pocket.pdb
REMARK  113 active torsions:
REMARK  status: ('A' for Active; 'I' for Inactive)
REMARK    1  A    between atoms: _1  and  _3
REMARK    2  A    between atoms: _3  and  _4
REMARK    3  A    between atoms: _3  and  _6
REMARK    4  A    between atoms: _6  and  _7
REMARK    5  A    between atoms: _12  and  _13
REMARK    6  A    between atoms: _15  and  _17
REMARK    7  A    between atoms: _17  and  _18
REMARK    8  A    between atoms: _17  and  _20
REMARK    9  A    between atoms: _23  and  _25
REMARK   10  A    between atoms: _25  and  _26
REMARK   11  A    between atoms: _25  and  _28
REMARK   12  A    between atoms: _28  and  _29
REMARK   13  A    between atoms: _29  and  _30
REMARK   14  A    between atoms: _30  and  _31
REMARK   15  A    between atoms: _31  and  _32
REMARK   16  A    between atoms: _36  and  _38
REMARK   17  A    between atoms: _38  and  _39
REMARK   18  A    between atoms: _38  and  _41
REMARK   19  A    between atoms: _41  and  _42
REMARK   20  A    between atoms: _45  and  _47
REMARK   21  A    between atoms: _47  and  _48
REMARK   22  A    between atoms: _47  and  _50
REMARK   23  A    between atoms: _50  and  _51
REMARK   24  A    between atoms: _56  and  _58
REMARK   25  A    between atoms: _58  and  _59
REMARK   26  A    between atoms: _58  and  _61
REMARK   27  A    between atoms: _61  and  _62
REMARK   28  A    between atoms: _64  and  _66
REMARK   29  A    between atoms: _66  and  _67
REMARK   30  A    between atoms: _66  and  _69
REMARK   31  A    between atoms: _69  and  _70
REMARK   32  A    between atoms: _70  and  _71
REMARK   33  A    between atoms: _71  and  _72
REMARK   34  A    between atoms: _72  and  _73
REMARK   35  A    between atoms: _77  and  _79
REMARK   36  A    between atoms: _79  and  _80
REMARK   37  A    between atoms: _79  and  _82
REMARK   38  A    between atoms: _82  and  _83
REMARK   39  A    between atoms: _88  and  _90
REMARK   40  A    between atoms: _90  and  _91
REMARK   41  A    between atoms: _90  and  _93
REMARK   42  A    between atoms: _93  and  _94
REMARK   43  A    between atoms: _94  and  _95
REMARK   44  A    between atoms: _95  and  _96
REMARK   45  A    between atoms: _96  and  _97
REMARK   46  A    between atoms: _101  and  _103
REMARK   47  A    between atoms: _103  and  _104
REMARK   48  A    between atoms: _103  and  _106
REMARK   49  A    between atoms: _106  and  _107
REMARK   50  A    between atoms: _110  and  _112
REMARK   51  A    between atoms: _112  and  _113
REMARK   52  A    between atoms: _112  and  _115
REMARK   53  A    between atoms: _115  and  _116
REMARK   54  A    between atoms: _116  and  _117
REMARK   55  A    between atoms: _117  and  _118
REMARK   56  A    between atoms: _127  and  _129
REMARK   57  A    between atoms: _129  and  _130
REMARK   58  A    between atoms: _129  and  _132
REMARK   59  A    between atoms: _132  and  _133
REMARK   60  A    between atoms: _136  and  _138
REMARK   61  A    between atoms: _138  and  _139
REMARK   62  A    between atoms: _138  and  _141
REMARK   63  A    between atoms: _141  and  _142
REMARK   64  A    between atoms: _145  and  _147
REMARK   65  A    between atoms: _147  and  _148
REMARK   66  A    between atoms: _147  and  _150
REMARK   67  A    between atoms: _150  and  _151
REMARK   68  A    between atoms: _156  and  _157
REMARK   69  A    between atoms: _159  and  _161
REMARK   70  A    between atoms: _161  and  _162
REMARK   71  A    between atoms: _161  and  _164
REMARK   72  A    between atoms: _164  and  _165
REMARK   73  A    between atoms: _165  and  _166
REMARK   74  A    between atoms: _166  and  _167
REMARK   75  A    between atoms: _176  and  _178
REMARK   76  A    between atoms: _178  and  _179
REMARK   77  A    between atoms: _178  and  _181
REMARK   78  A    between atoms: _181  and  _182
REMARK   79  A    between atoms: _184  and  _186
REMARK   80  A    between atoms: _186  and  _187
REMARK   81  A    between atoms: _186  and  _189
REMARK   82  A    between atoms: _191  and  _193
REMARK   83  A    between atoms: _193  and  _194
REMARK   84  A    between atoms: _193  and  _196
REMARK   85  A    between atoms: _196  and  _197
REMARK   86  A    between atoms: _200  and  _202
REMARK   87  A    between atoms: _202  and  _203
REMARK   88  A    between atoms: _202  and  _205
REMARK   89  A    between atoms: _205  and  _206
REMARK   90  A    between atoms: _206  and  _207
REMARK   91  A    between atoms: _210  and  _212
REMARK   92  A    between atoms: _212  and  _213
REMARK   93  A    between atoms: _212  and  _215
REMARK   94  A    between atoms: _215  and  _216
REMARK   95  A    between atoms: _219  and  _221
REMARK   96  A    between atoms: _221  and  _222
REMARK   97  A    between atoms: _224  and  _226
REMARK   98  A    between atoms: _226  and  _227
REMARK   99  A    between atoms: _226  and  _229
REMARK  100  A    between atoms: _229  and  _230
REMARK  101  A    between atoms: _235  and  _237
REMARK  102  A    between atoms: _237  and  _238
REMARK  103  A    between atoms: _237  and  _240
REMARK  104  A    between atoms: _240  and  _241
REMARK  105  A    between atoms: _246  and  _248
REMARK  106  A    between atoms: _248  and  _249
REMARK  107  A    between atoms: _248  and  _251
REMARK  108  A    between atoms: _251  and  _252
REMARK  109  A    between atoms: _252  and  _253
REMARK  110  A    between atoms: _256  and  _258
REMARK  111  A    between atoms: _258  and  _259
REMARK  112  A    between atoms: _258  and  _261
REMARK  113  A    between atoms: _261  and  _262
REMARK                            x       y       z     vdW  Elec       q    Type
REMARK                         _______ _______ _______ _____ _____    ______ ____
ROOT
ATOM      1  O   HOH     1       5.041  -3.061  43.091  0.00  0.00    +0.000 OA
ENDROOT
TORSDOF 0
REMARK  Name = ../refined-set-2016/4np9/4np9_pocket.pdb
REMARK  113 active torsions:
REMARK  status: ('A' for Active; 'I' for Inactive)
REMARK    1  A    between atoms: _1  and  _3
REMARK    2  A    between atoms: _3  and  _4
REMARK    3  A    between atoms: _3  and  _6
REMARK    4  A    between atoms: _6  and  _7
REMARK    5  A    between atoms: _12  and  _13
REMARK    6  A    between atoms: _15  and  _17
REMARK    7  A    between atoms: _17  and  _18
REMARK    8  A    between atoms: _17  and  _20
REMARK    9  A    between atoms: _23  and  _25
REMARK   10  A    between atoms: _25  and  _26
REMARK   11  A    between atoms: _25  and  _28
REMARK   12  A    between atoms: _28  and  _29
REMARK   13  A    between atoms: _29  and  _30
REMARK   14  A    between atoms: _30  and  _31
REMARK   15  A    between atoms: _31  and  _32
REMARK   16  A    between atoms: _36  and  _38
REMARK   17  A    between atoms: _38  and  _39
REMARK   18  A    between atoms: _38  and  _41
REMARK   19  A    between atoms: _41  and  _42
REMARK   20  A    between atoms: _45  and  _47
REMARK   21  A    between atoms: _47  and  _48
REMARK   22  A    between atoms: _47  and  _50
REMARK   23  A    between atoms: _50  and  _51
REMARK   24  A    between atoms: _56  and  _58
REMARK   25  A    between atoms: _58  and  _59
REMARK   26  A    between atoms: _58  and  _61
REMARK   27  A    between atoms: _61  and  _62
REMARK   28  A    between atoms: _64  and  _66
REMARK   29  A    between atoms: _66  and  _67
REMARK   30  A    between atoms: _66  and  _69
REMARK   31  A    between atoms: _69  and  _70
REMARK   32  A    between atoms: _70  and  _71
REMARK   33  A    between atoms: _71  and  _72
REMARK   34  A    between atoms: _72  and  _73
REMARK   35  A    between atoms: _77  and  _79
REMARK   36  A    between atoms: _79  and  _80
REMARK   37  A    between atoms: _79  and  _82
REMARK   38  A    between atoms: _82  and  _83
REMARK   39  A    between atoms: _88  and  _90
REMARK   40  A    between atoms: _90  and  _91
REMARK   41  A    between atoms: _90  and  _93
REMARK   42  A    between atoms: _93  and  _94
REMARK   43  A    between atoms: _94  and  _95
REMARK   44  A    between atoms: _95  and  _96
REMARK   45  A    between atoms: _96  and  _97
REMARK   46  A    between atoms: _101  and  _103
REMARK   47  A    between atoms: _103  and  _104
REMARK   48  A    between atoms: _103  and  _106
REMARK   49  A    between atoms: _106  and  _107
REMARK   50  A    between atoms: _110  and  _112
REMARK   51  A    between atoms: _112  and  _113
REMARK   52  A    between atoms: _112  and  _115
REMARK   53  A    between atoms: _115  and  _116
REMARK   54  A    between atoms: _116  and  _117
REMARK   55  A    between atoms: _117  and  _118
REMARK   56  A    between atoms: _127  and  _129
REMARK   57  A    between atoms: _129  and  _130
REMARK   58  A    between atoms: _129  and  _132
REMARK   59  A    between atoms: _132  and  _133
REMARK   60  A    between atoms: _136  and  _138
REMARK   61  A    between atoms: _138  and  _139
REMARK   62  A    between atoms: _138  and  _141
REMARK   63  A    between atoms: _141  and  _142
REMARK   64  A    between atoms: _145  and  _147
REMARK   65  A    between atoms: _147  and  _148
REMARK   66  A    between atoms: _147  and  _150
REMARK   67  A    between atoms: _150  and  _151
REMARK   68  A    between atoms: _156  and  _157
REMARK   69  A    between atoms: _159  and  _161
REMARK   70  A    between atoms: _161  and  _162
REMARK   71  A    between atoms: _161  and  _164
REMARK   72  A    between atoms: _164  and  _165
REMARK   73  A    between atoms: _165  and  _166
REMARK   74  A    between atoms: _166  and  _167
REMARK   75  A    between atoms: _176  and  _178
REMARK   76  A    between atoms: _178  and  _179
REMARK   77  A    between atoms: _178  and  _181
REMARK   78  A    between atoms: _181  and  _182
REMARK   79  A    between atoms: _184  and  _186
REMARK   80  A    between atoms: _186  and  _187
REMARK   81  A    between atoms: _186  and  _189
REMARK   82  A    between atoms: _191  and  _193
REMARK   83  A    between atoms: _193  and  _194
REMARK   84  A    between atoms: _193  and  _196
REMARK   85  A    between atoms: _196  and  _197
REMARK   86  A    between atoms: _200  and  _202
REMARK   87  A    between atoms: _202  and  _203
REMARK   88  A    between atoms: _202  and  _205
REMARK   89  A    between atoms: _205  and  _206
REMARK   90  A    between atoms: _206  and  _207
REMARK   91  A    between atoms: _210  and  _212
REMARK   92  A    between atoms: _212  and  _213
REMARK   93  A    between atoms: _212  and  _215
REMARK   94  A    between atoms: _215  and  _216
REMARK   95  A    between atoms: _219  and  _221
REMARK   96  A    between atoms: _221  and  _222
REMARK   97  A    between atoms: _224  and  _226
REMARK   98  A    between atoms: _226  and  _227
REMARK   99  A    between atoms: _226  and  _229
REMARK  100  A    between atoms: _229  and  _230
REMARK  101  A    between atoms: _235  and  _237
REMARK  102  A    between atoms: _237  and  _238
REMARK  103  A    between atoms: _237  and  _240
REMARK  104  A    between atoms: _240  and  _241
REMARK  105  A    between atoms: _246  and  _248
REMARK  106  A    between atoms: _248  and  _249
REMARK  107  A    between atoms: _248  and  _251
REMARK  108  A    between atoms: _251  and  _252
REMARK  109  A    between atoms: _252  and  _253
REMARK  110  A    between atoms: _256  and  _258
REMARK  111  A    between atoms: _258  and  _259
REMARK  112  A    between atoms: _258  and  _261
REMARK  113  A    between atoms: _261  and  _262
REMARK                            x       y       z     vdW  Elec       q    Type
REMARK                         _______ _______ _______ _____ _____    ______ ____
ROOT
ATOM      1  O   HOH     1       3.497  -2.191  40.947  0.00  0.00    +0.000 OA
ENDROOT
TORSDOF 0
