REMARK  Name = ../refined-set-2016/3w07/3w07_pocket.pdb
REMARK  203 active torsions:
REMARK  status: ('A' for Active; 'I' for Inactive)
REMARK    1  A    between atoms: _1  and  _3
REMARK    2  A    between atoms: _3  and  _4
REMARK    3  A    between atoms: _3  and  _6
REMARK    4  A    between atoms: _6  and  _7
REMARK    5  A    between atoms: _10  and  _12
REMARK    6  A    between atoms: _12  and  _13
REMARK    7  A    between atoms: _12  and  _15
REMARK    8  A    between atoms: _15  and  _16
REMARK    9  A    between atoms: _19  and  _21
REMARK   10  A    between atoms: _21  and  _22
REMARK   11  A    between atoms: _25  and  _27
REMARK   12  A    between atoms: _27  and  _28
REMARK   13  A    between atoms: _27  and  _30
REMARK   14  A    between atoms: _30  and  _31
REMARK   15  A    between atoms: _31  and  _32
REMARK   16  A    between atoms: _34  and  _36
REMARK   17  A    between atoms: _36  and  _37
REMARK   18  A    between atoms: _36  and  _39
REMARK   19  A    between atoms: _39  and  _40
REMARK   20  A    between atoms: _43  and  _45
REMARK   21  A    between atoms: _45  and  _46
REMARK   22  A    between atoms: _45  and  _48
REMARK   23  A    between atoms: _48  and  _49
REMARK   24  A    between atoms: _49  and  _50
REMARK   25  A    between atoms: _50  and  _51
REMARK   26  A    between atoms: _51  and  _52
REMARK   27  A    between atoms: _56  and  _58
REMARK   28  A    between atoms: _58  and  _59
REMARK   29  A    between atoms: _58  and  _61
REMARK   30  A    between atoms: _61  and  _62
REMARK   31  A    between atoms: _65  and  _67
REMARK   32  A    between atoms: _67  and  _68
REMARK   33  A    between atoms: _70  and  _72
REMARK   34  A    between atoms: _72  and  _73
REMARK   35  A    between atoms: _72  and  _75
REMARK   36  A    between atoms: _75  and  _76
REMARK   37  A    between atoms: _81  and  _82
REMARK   38  A    between atoms: _85  and  _86
REMARK   39  A    between atoms: _91  and  _93
REMARK   40  A    between atoms: _93  and  _94
REMARK   41  A    between atoms: _93  and  _96
REMARK   42  A    between atoms: _96  and  _97
REMARK   43  A    between atoms: _100  and  _102
REMARK   44  A    between atoms: _102  and  _103
REMARK   45  A    between atoms: _102  and  _105
REMARK   46  A    between atoms: _105  and  _106
REMARK   47  A    between atoms: _109  and  _111
REMARK   48  A    between atoms: _111  and  _112
REMARK   49  A    between atoms: _111  and  _114
REMARK   50  A    between atoms: _114  and  _115
REMARK   51  A    between atoms: _115  and  _116
REMARK   52  A    between atoms: _116  and  _117
REMARK   53  A    between atoms: _117  and  _118
REMARK   54  A    between atoms: _122  and  _124
REMARK   55  A    between atoms: _124  and  _125
REMARK   56  A    between atoms: _124  and  _127
REMARK   57  A    between atoms: _127  and  _128
REMARK   58  A    between atoms: _131  and  _133
REMARK   59  A    between atoms: _133  and  _134
REMARK   60  A    between atoms: _133  and  _136
REMARK   61  A    between atoms: _136  and  _137
REMARK   62  A    between atoms: _142  and  _144
REMARK   63  A    between atoms: _144  and  _145
REMARK   64  A    between atoms: _144  and  _147
REMARK   65  A    between atoms: _147  and  _148
REMARK   66  A    between atoms: _151  and  _153
REMARK   67  A    between atoms: _153  and  _154
REMARK   68  A    between atoms: _153  and  _156
REMARK   69  A    between atoms: _156  and  _157
REMARK   70  A    between atoms: _160  and  _162
REMARK   71  A    between atoms: _162  and  _163
REMARK   72  A    between atoms: _162  and  _165
REMARK   73  A    between atoms: _165  and  _166
REMARK   74  A    between atoms: _166  and  _167
REMARK   75  A    between atoms: _170  and  _172
REMARK   76  A    between atoms: _172  and  _173
REMARK   77  A    between atoms: _172  and  _175
REMARK   78  A    between atoms: _175  and  _176
REMARK   79  A    between atoms: _176  and  _177
REMARK   80  A    between atoms: _179  and  _181
REMARK   81  A    between atoms: _181  and  _182
REMARK   82  A    between atoms: _181  and  _184
REMARK   83  A    between atoms: _184  and  _185
REMARK   84  A    between atoms: _187  and  _189
REMARK   85  A    between atoms: _189  and  _190
REMARK   86  A    between atoms: _189  and  _192
REMARK   87  A    between atoms: _192  and  _193
REMARK   88  A    between atoms: _198  and  _200
REMARK   89  A    between atoms: _200  and  _201
REMARK   90  A    between atoms: _204  and  _206
REMARK   91  A    between atoms: _206  and  _207
REMARK   92  A    between atoms: _206  and  _209
REMARK   93  A    between atoms: _209  and  _210
REMARK   94  A    between atoms: _213  and  _215
REMARK   95  A    between atoms: _215  and  _216
REMARK   96  A    between atoms: _215  and  _218
REMARK   97  A    between atoms: _221  and  _223
REMARK   98  A    between atoms: _223  and  _224
REMARK   99  A    between atoms: _227  and  _228
REMARK  100  A    between atoms: _233  and  _235
REMARK  101  A    between atoms: _235  and  _236
REMARK  102  A    between atoms: _235  and  _238
REMARK  103  A    between atoms: _238  and  _239
REMARK  104  A    between atoms: _241  and  _243
REMARK  105  A    between atoms: _243  and  _244
REMARK  106  A    between atoms: _243  and  _246
REMARK  107  A    between atoms: _246  and  _247
REMARK  108  A    between atoms: _250  and  _252
REMARK  109  A    between atoms: _252  and  _253
REMARK  110  A    between atoms: _252  and  _255
REMARK  111  A    between atoms: _255  and  _256
REMARK  112  A    between atoms: _256  and  _257
REMARK  113  A    between atoms: _257  and  _258
REMARK  114  A    between atoms: _267  and  _269
REMARK  115  A    between atoms: _269  and  _270
REMARK  116  A    between atoms: _269  and  _272
REMARK  117  A    between atoms: _272  and  _273
REMARK  118  A    between atoms: _276  and  _277
REMARK  119  A    between atoms: _282  and  _284
REMARK  120  A    between atoms: _284  and  _285
REMARK  121  A    between atoms: _287  and  _289
REMARK  122  A    between atoms: _289  and  _290
REMARK  123  A    between atoms: _289  and  _292
REMARK  124  A    between atoms: _295  and  _297
REMARK  125  A    between atoms: _297  and  _298
REMARK  126  A    between atoms: _300  and  _302
REMARK  127  A    between atoms: _302  and  _303
REMARK  128  A    between atoms: _306  and  _308
REMARK  129  A    between atoms: _308  and  _309
REMARK  130  A    between atoms: _308  and  _311
REMARK  131  A    between atoms: _311  and  _312
REMARK  132  A    between atoms: _312  and  _313
REMARK  133  A    between atoms: _318  and  _320
REMARK  134  A    between atoms: _320  and  _321
REMARK  135  A    between atoms: _323  and  _325
REMARK  136  A    between atoms: _325  and  _326
REMARK  137  A    between atoms: _328  and  _330
REMARK  138  A    between atoms: _330  and  _331
REMARK  139  A    between atoms: _330  and  _333
REMARK  140  A    between atoms: _333  and  _334
REMARK  141  A    between atoms: _337  and  _339
REMARK  142  A    between atoms: _339  and  _340
REMARK  143  A    between atoms: _339  and  _342
REMARK  144  A    between atoms: _345  and  _347
REMARK  145  A    between atoms: _347  and  _348
REMARK  146  A    between atoms: _350  and  _352
REMARK  147  A    between atoms: _352  and  _353
REMARK  148  A    between atoms: _352  and  _355
REMARK  149  A    between atoms: _355  and  _356
REMARK  150  A    between atoms: _356  and  _357
REMARK  151  A    between atoms: _357  and  _358
REMARK  152  A    between atoms: _367  and  _369
REMARK  153  A    between atoms: _369  and  _370
REMARK  154  A    between atoms: _369  and  _372
REMARK  155  A    between atoms: _372  and  _373
REMARK  156  A    between atoms: _375  and  _377
REMARK  157  A    between atoms: _377  and  _378
REMARK  158  A    between atoms: _377  and  _380
REMARK  159  A    between atoms: _380  and  _381
REMARK  160  A    between atoms: _384  and  _386
REMARK  161  A    between atoms: _386  and  _387
REMARK  162  A    between atoms: _386  and  _389
REMARK  163  A    between atoms: _389  and  _390
REMARK  164  A    between atoms: _395  and  _396
REMARK  165  A    between atoms: _398  and  _400
REMARK  166  A    between atoms: _400  and  _401
REMARK  167  A    between atoms: _400  and  _403
REMARK  168  A    between atoms: _403  and  _404
REMARK  169  A    between atoms: _407  and  _409
REMARK  170  A    between atoms: _409  and  _410
REMARK  171  A    between atoms: _413  and  _415
REMARK  172  A    between atoms: _415  and  _416
REMARK  173  A    between atoms: _415  and  _418
REMARK  174  A    between atoms: _418  and  _419
REMARK  175  A    between atoms: _422  and  _424
REMARK  176  A    between atoms: _424  and  _425
REMARK  177  A    between atoms: _424  and  _427
REMARK  178  A    between atoms: _427  and  _428
REMARK  179  A    between atoms: _432  and  _433
REMARK  180  A    between atoms: _438  and  _440
REMARK  181  A    between atoms: _440  and  _441
REMARK  182  A    between atoms: _440  and  _443
REMARK  183  A    between atoms: _443  and  _444
REMARK  184  A    between atoms: _444  and  _445
REMARK  185  A    between atoms: _448  and  _450
REMARK  186  A    between atoms: _450  and  _451
REMARK  187  A    between atoms: _450  and  _453
REMARK  188  A    between atoms: _453  and  _454
REMARK  189  A    between atoms: _457  and  _459
REMARK  190  A    between atoms: _459  and  _460
REMARK  191  A    between atoms: _459  and  _462
REMARK  192  A    between atoms: _462  and  _463
REMARK  193  A    between atoms: _468  and  _470
REMARK  194  A    between atoms: _470  and  _471
REMARK  195  A    between atoms: _470  and  _473
REMARK  196  A    between atoms: _473  and  _474
REMARK  197  A    between atoms: _474  and  _475
REMARK  198  A    between atoms: _475  and  _476
REMARK  199  A    between atoms: _476  and  _477
REMARK  200  A    between atoms: _481  and  _483
REMARK  201  A    between atoms: _483  and  _484
REMARK  202  A    between atoms: _483  and  _486
REMARK  203  A    between atoms: _486  and  _487
REMARK                            x       y       z     vdW  Elec       q    Type
REMARK                         _______ _______ _______ _____ _____    ______ ____
ROOT
ATOM      1  CA  ALA A   3      23.602  36.282  33.769  0.00  0.00    +0.149 C 
ATOM      2  CB  ALA A   3      22.312  36.404  34.552  0.00  0.00    +0.031 C 
ENDROOT
BRANCH   1   4
ATOM      3  C   LEU A   2      24.272  34.980  31.813  0.00  0.00    +0.241 C 
ATOM      4  N   ALA A   3      23.646  35.048  32.970  0.00  0.00    -0.297 N 
ATOM      5  H   ALA A   3      23.166  34.199  33.331  0.00  0.00    +0.150 HD
ATOM      6  O   LEU A   2      24.757  35.954  31.264  0.00  0.00    -0.273 OA
BRANCH   3   7
ATOM      7  CA  LEU A   2      24.447  33.602  31.189  0.00  0.00    +0.149 C 
BRANCH   7  10
ATOM      8  C   ILE A   1      22.641  33.465  29.562  0.00  0.00    +0.238 C 
ATOM      9  O   ILE A   1      21.810  33.307  30.457  0.00  0.00    -0.274 OA
ATOM     10  N   LEU A   2      23.937  33.604  29.816  0.00  0.00    -0.297 N 
ATOM     11  H   LEU A   2      24.603  33.716  29.025  0.00  0.00    +0.150 HD
BRANCH   8  12
ATOM     12  CA  ILE A   1      22.210  33.515  28.100  0.00  0.00    +0.145 C 
BRANCH  12  13
ATOM     13  CB  ILE A   1      21.344  34.776  27.851  0.00  0.00    +0.025 C 
ATOM     14  CG2 ILE A   1      22.079  36.036  28.318  0.00  0.00    +0.002 C 
BRANCH  13  15
ATOM     15  CG1 ILE A   1      20.959  34.863  26.395  0.00  0.00    +0.002 C 
ATOM     16  CD1 ILE A   1      19.850  35.891  26.118  0.00  0.00    +0.000 C 
ENDBRANCH  13  15
ENDBRANCH  12  13
BRANCH  12  17
ATOM     17  N   ILE A   1      21.411  32.340  27.843  0.00  0.00    -0.238 NA
ATOM     18  H   ILE A   1      20.485  32.263  28.311  0.00  0.00    +0.142 HD
ENDBRANCH  12  17
ENDBRANCH   8  12
ENDBRANCH   7  10
BRANCH   7  19
ATOM     19  CB  LEU A   2      25.901  33.217  31.179  0.00  0.00    +0.029 C 
BRANCH  19  20
ATOM     20  CG  LEU A   2      26.623  33.274  32.530  0.00  0.00    +0.002 C 
ATOM     21  CD2 LEU A   2      26.088  32.219  33.472  0.00  0.00    +0.000 C 
ATOM     22  CD1 LEU A   2      28.134  33.123  32.292  0.00  0.00    +0.000 C 
ENDBRANCH  19  20
ENDBRANCH   7  19
ENDBRANCH   3   7
ENDBRANCH   1   4
BRANCH   1  23
ATOM     23  C   ALA A   3      24.801  36.258  34.700  0.00  0.00    +0.241 C 
ATOM     24  O   ALA A   3      24.804  35.559  35.734  0.00  0.00    -0.273 OA
ATOM     25  N   MET A   4      25.838  37.035  34.366  0.00  0.00    -0.297 N 
ATOM     26  H   MET A   4      25.759  37.669  33.545  0.00  0.00    +0.150 HD
BRANCH  25  27
ATOM     27  CA  MET A   4      27.068  37.007  35.130  0.00  0.00    +0.149 C 
BRANCH  27  28
ATOM     28  C   MET A   4      27.068  38.090  36.177  0.00  0.00    +0.241 C 
ATOM     29  N   ASP A   5      26.508  37.769  37.350  0.00  0.00    -0.298 N 
ATOM     30  H   ASP A   5      26.170  36.793  37.472  0.00  0.00    +0.150 HD
ATOM     31  O   MET A   4      27.569  39.204  35.937  0.00  0.00    -0.273 OA
BRANCH  29  32
ATOM     32  CA  ASP A   5      26.338  38.687  38.468  0.00  0.00    +0.148 C 
BRANCH  32  33
ATOM     33  C   ASP A   5      27.263  38.406  39.636  0.00  0.00    +0.227 C 
ATOM     34  O   ASP A   5      27.051  38.962  40.702  0.00  0.00    -0.286 OA
ENDBRANCH  32  33
BRANCH  32  35
ATOM     35  CB  ASP A   5      24.877  38.732  38.942  0.00  0.00    +0.142 C 
BRANCH  35  36
ATOM     36  CG  ASP A   5      23.933  39.173  37.847  0.00  0.00    +0.367 C 
ATOM     37  OD2 ASP A   5      22.893  38.468  37.677  0.00  0.00    -0.246 OA
ATOM     38  OD1 ASP A   5      24.225  40.221  37.183  0.00  0.00    -0.246 OA
ENDBRANCH  35  36
ENDBRANCH  32  35
ENDBRANCH  29  32
ENDBRANCH  27  28
BRANCH  27  39
ATOM     39  CB  MET A   4      28.268  37.056  34.172  0.00  0.00    +0.041 C 
BRANCH  39  40
ATOM     40  CG  MET A   4      29.614  37.063  34.912  0.00  0.00    +0.060 C 
BRANCH  40  41
ATOM     41  SD  MET A   4      29.723  36.033  36.380  0.00  0.00    -0.139 S 
ATOM     42  CE  MET A   4      29.457  34.383  35.688  0.00  0.00    +0.069 C 
ENDBRANCH  40  41
ENDBRANCH  39  40
ENDBRANCH  27  39
ENDBRANCH  25  27
ENDBRANCH   1  23
TORSDOF 19
REMARK  Name = ../refined-set-2016/3w07/3w07_pocket.pdb
REMARK  203 active torsions:
REMARK  status: ('A' for Active; 'I' for Inactive)
REMARK    1  A    between atoms: _1  and  _3
REMARK    2  A    between atoms: _3  and  _4
REMARK    3  A    between atoms: _3  and  _6
REMARK    4  A    between atoms: _6  and  _7
REMARK    5  A    between atoms: _10  and  _12
REMARK    6  A    between atoms: _12  and  _13
REMARK    7  A    between atoms: _12  and  _15
REMARK    8  A    between atoms: _15  and  _16
REMARK    9  A    between atoms: _19  and  _21
REMARK   10  A    between atoms: _21  and  _22
REMARK   11  A    between atoms: _25  and  _27
REMARK   12  A    between atoms: _27  and  _28
REMARK   13  A    between atoms: _27  and  _30
REMARK   14  A    between atoms: _30  and  _31
REMARK   15  A    between atoms: _31  and  _32
REMARK   16  A    between atoms: _34  and  _36
REMARK   17  A    between atoms: _36  and  _37
REMARK   18  A    between atoms: _36  and  _39
REMARK   19  A    between atoms: _39  and  _40
REMARK   20  A    between atoms: _43  and  _45
REMARK   21  A    between atoms: _45  and  _46
REMARK   22  A    between atoms: _45  and  _48
REMARK   23  A    between atoms: _48  and  _49
REMARK   24  A    between atoms: _49  and  _50
REMARK   25  A    between atoms: _50  and  _51
REMARK   26  A    between atoms: _51  and  _52
REMARK   27  A    between atoms: _56  and  _58
REMARK   28  A    between atoms: _58  and  _59
REMARK   29  A    between atoms: _58  and  _61
REMARK   30  A    between atoms: _61  and  _62
REMARK   31  A    between atoms: _65  and  _67
REMARK   32  A    between atoms: _67  and  _68
REMARK   33  A    between atoms: _70  and  _72
REMARK   34  A    between atoms: _72  and  _73
REMARK   35  A    between atoms: _72  and  _75
REMARK   36  A    between atoms: _75  and  _76
REMARK   37  A    between atoms: _81  and  _82
REMARK   38  A    between atoms: _85  and  _86
REMARK   39  A    between atoms: _91  and  _93
REMARK   40  A    between atoms: _93  and  _94
REMARK   41  A    between atoms: _93  and  _96
REMARK   42  A    between atoms: _96  and  _97
REMARK   43  A    between atoms: _100  and  _102
REMARK   44  A    between atoms: _102  and  _103
REMARK   45  A    between atoms: _102  and  _105
REMARK   46  A    between atoms: _105  and  _106
REMARK   47  A    between atoms: _109  and  _111
REMARK   48  A    between atoms: _111  and  _112
REMARK   49  A    between atoms: _111  and  _114
REMARK   50  A    between atoms: _114  and  _115
REMARK   51  A    between atoms: _115  and  _116
REMARK   52  A    between atoms: _116  and  _117
REMARK   53  A    between atoms: _117  and  _118
REMARK   54  A    between atoms: _122  and  _124
REMARK   55  A    between atoms: _124  and  _125
REMARK   56  A    between atoms: _124  and  _127
REMARK   57  A    between atoms: _127  and  _128
REMARK   58  A    between atoms: _131  and  _133
REMARK   59  A    between atoms: _133  and  _134
REMARK   60  A    between atoms: _133  and  _136
REMARK   61  A    between atoms: _136  and  _137
REMARK   62  A    between atoms: _142  and  _144
REMARK   63  A    between atoms: _144  and  _145
REMARK   64  A    between atoms: _144  and  _147
REMARK   65  A    between atoms: _147  and  _148
REMARK   66  A    between atoms: _151  and  _153
REMARK   67  A    between atoms: _153  and  _154
REMARK   68  A    between atoms: _153  and  _156
REMARK   69  A    between atoms: _156  and  _157
REMARK   70  A    between atoms: _160  and  _162
REMARK   71  A    between atoms: _162  and  _163
REMARK   72  A    between atoms: _162  and  _165
REMARK   73  A    between atoms: _165  and  _166
REMARK   74  A    between atoms: _166  and  _167
REMARK   75  A    between atoms: _170  and  _172
REMARK   76  A    between atoms: _172  and  _173
REMARK   77  A    between atoms: _172  and  _175
REMARK   78  A    between atoms: _175  and  _176
REMARK   79  A    between atoms: _176  and  _177
REMARK   80  A    between atoms: _179  and  _181
REMARK   81  A    between atoms: _181  and  _182
REMARK   82  A    between atoms: _181  and  _184
REMARK   83  A    between atoms: _184  and  _185
REMARK   84  A    between atoms: _187  and  _189
REMARK   85  A    between atoms: _189  and  _190
REMARK   86  A    between atoms: _189  and  _192
REMARK   87  A    between atoms: _192  and  _193
REMARK   88  A    between atoms: _198  and  _200
REMARK   89  A    between atoms: _200  and  _201
REMARK   90  A    between atoms: _204  and  _206
REMARK   91  A    between atoms: _206  and  _207
REMARK   92  A    between atoms: _206  and  _209
REMARK   93  A    between atoms: _209  and  _210
REMARK   94  A    between atoms: _213  and  _215
REMARK   95  A    between atoms: _215  and  _216
REMARK   96  A    between atoms: _215  and  _218
REMARK   97  A    between atoms: _221  and  _223
REMARK   98  A    between atoms: _223  and  _224
REMARK   99  A    between atoms: _227  and  _228
REMARK  100  A    between atoms: _233  and  _235
REMARK  101  A    between atoms: _235  and  _236
REMARK  102  A    between atoms: _235  and  _238
REMARK  103  A    between atoms: _238  and  _239
REMARK  104  A    between atoms: _241  and  _243
REMARK  105  A    between atoms: _243  and  _244
REMARK  106  A    between atoms: _243  and  _246
REMARK  107  A    between atoms: _246  and  _247
REMARK  108  A    between atoms: _250  and  _252
REMARK  109  A    between atoms: _252  and  _253
REMARK  110  A    between atoms: _252  and  _255
REMARK  111  A    between atoms: _255  and  _256
REMARK  112  A    between atoms: _256  and  _257
REMARK  113  A    between atoms: _257  and  _258
REMARK  114  A    between atoms: _267  and  _269
REMARK  115  A    between atoms: _269  and  _270
REMARK  116  A    between atoms: _269  and  _272
REMARK  117  A    between atoms: _272  and  _273
REMARK  118  A    between atoms: _276  and  _277
REMARK  119  A    between atoms: _282  and  _284
REMARK  120  A    between atoms: _284  and  _285
REMARK  121  A    between atoms: _287  and  _289
REMARK  122  A    between atoms: _289  and  _290
REMARK  123  A    between atoms: _289  and  _292
REMARK  124  A    between atoms: _295  and  _297
REMARK  125  A    between atoms: _297  and  _298
REMARK  126  A    between atoms: _300  and  _302
REMARK  127  A    between atoms: _302  and  _303
REMARK  128  A    between atoms: _306  and  _308
REMARK  129  A    between atoms: _308  and  _309
REMARK  130  A    between atoms: _308  and  _311
REMARK  131  A    between atoms: _311  and  _312
REMARK  132  A    between atoms: _312  and  _313
REMARK  133  A    between atoms: _318  and  _320
REMARK  134  A    between atoms: _320  and  _321
REMARK  135  A    between atoms: _323  and  _325
REMARK  136  A    between atoms: _325  and  _326
REMARK  137  A    between atoms: _328  and  _330
REMARK  138  A    between atoms: _330  and  _331
REMARK  139  A    between atoms: _330  and  _333
REMARK  140  A    between atoms: _333  and  _334
REMARK  141  A    between atoms: _337  and  _339
REMARK  142  A    between atoms: _339  and  _340
REMARK  143  A    between atoms: _339  and  _342
REMARK  144  A    between atoms: _345  and  _347
REMARK  145  A    between atoms: _347  and  _348
REMARK  146  A    between atoms: _350  and  _352
REMARK  147  A    between atoms: _352  and  _353
REMARK  148  A    between atoms: _352  and  _355
REMARK  149  A    between atoms: _355  and  _356
REMARK  150  A    between atoms: _356  and  _357
REMARK  151  A    between atoms: _357  and  _358
REMARK  152  A    between atoms: _367  and  _369
REMARK  153  A    between atoms: _369  and  _370
REMARK  154  A    between atoms: _369  and  _372
REMARK  155  A    between atoms: _372  and  _373
REMARK  156  A    between atoms: _375  and  _377
REMARK  157  A    between atoms: _377  and  _378
REMARK  158  A    between atoms: _377  and  _380
REMARK  159  A    between atoms: _380  and  _381
REMARK  160  A    between atoms: _384  and  _386
REMARK  161  A    between atoms: _386  and  _387
REMARK  162  A    between atoms: _386  and  _389
REMARK  163  A    between atoms: _389  and  _390
REMARK  164  A    between atoms: _395  and  _396
REMARK  165  A    between atoms: _398  and  _400
REMARK  166  A    between atoms: _400  and  _401
REMARK  167  A    between atoms: _400  and  _403
REMARK  168  A    between atoms: _403  and  _404
REMARK  169  A    between atoms: _407  and  _409
REMARK  170  A    between atoms: _409  and  _410
REMARK  171  A    between atoms: _413  and  _415
REMARK  172  A    between atoms: _415  and  _416
REMARK  173  A    between atoms: _415  and  _418
REMARK  174  A    between atoms: _418  and  _419
REMARK  175  A    between atoms: _422  and  _424
REMARK  176  A    between atoms: _424  and  _425
REMARK  177  A    between atoms: _424  and  _427
REMARK  178  A    between atoms: _427  and  _428
REMARK  179  A    between atoms: _432  and  _433
REMARK  180  A    between atoms: _438  and  _440
REMARK  181  A    between atoms: _440  and  _441
REMARK  182  A    between atoms: _440  and  _443
REMARK  183  A    between atoms: _443  and  _444
REMARK  184  A    between atoms: _444  and  _445
REMARK  185  A    between atoms: _448  and  _450
REMARK  186  A    between atoms: _450  and  _451
REMARK  187  A    between atoms: _450  and  _453
REMARK  188  A    between atoms: _453  and  _454
REMARK  189  A    between atoms: _457  and  _459
REMARK  190  A    between atoms: _459  and  _460
REMARK  191  A    between atoms: _459  and  _462
REMARK  192  A    between atoms: _462  and  _463
REMARK  193  A    between atoms: _468  and  _470
REMARK  194  A    between atoms: _470  and  _471
REMARK  195  A    between atoms: _470  and  _473
REMARK  196  A    between atoms: _473  and  _474
REMARK  197  A    between atoms: _474  and  _475
REMARK  198  A    between atoms: _475  and  _476
REMARK  199  A    between atoms: _476  and  _477
REMARK  200  A    between atoms: _481  and  _483
REMARK  201  A    between atoms: _483  and  _484
REMARK  202  A    between atoms: _483  and  _486
REMARK  203  A    between atoms: _486  and  _487
REMARK                            x       y       z     vdW  Elec       q    Type
REMARK                         _______ _______ _______ _____ _____    ______ ____
ROOT
ATOM      1  C   GLY A   3      25.714  44.836  35.912  0.00  0.00    +0.243 C 
ATOM      2  N   TYR A   4      25.008  45.647  36.704  0.00  0.00    -0.297 N 
ATOM      3  H   TYR A   4      23.969  45.643  36.651  0.00  0.00    +0.150 HD
ATOM      4  O   GLY A   3      26.945  44.796  35.923  0.00  0.00    -0.273 OA
ENDROOT
BRANCH   2   5
ATOM      5  CA  TYR A   4      25.672  46.529  37.632  0.00  0.00    +0.153 C 
BRANCH   5   6
ATOM      6  C   TYR A   4      26.421  45.803  38.747  0.00  0.00    +0.244 C 
ATOM      7  N   PRO A   5      26.023  44.623  39.235  0.00  0.00    -0.272 N 
ATOM      8  CA  PRO A   5      26.861  43.994  40.288  0.00  0.00    +0.152 C 
ATOM      9  CB  PRO A   5      26.153  42.686  40.527  0.00  0.00    +0.031 C 
ATOM     10  CG  PRO A   5      24.714  42.981  40.265  0.00  0.00    +0.024 C 
ATOM     11  CD  PRO A   5      24.764  43.895  39.061  0.00  0.00    +0.094 C 
ATOM     12  O   TYR A   4      27.432  46.328  39.188  0.00  0.00    -0.273 OA
BRANCH   8  13
ATOM     13  C   PRO A   5      28.304  43.858  39.837  0.00  0.00    +0.241 C 
ATOM     14  O   PRO A   5      29.218  44.190  40.606  0.00  0.00    -0.273 OA
ATOM     15  N   LEU A   6      28.520  43.387  38.610  0.00  0.00    -0.298 N 
ATOM     16  H   LEU A   6      27.721  43.146  37.990  0.00  0.00    +0.150 HD
BRANCH  15  17
ATOM     17  CA  LEU A   6      29.900  43.213  38.146  0.00  0.00    +0.137 C 
BRANCH  17  18
ATOM     18  C   LEU A   6      30.515  44.533  37.723  0.00  0.00    +0.227 C 
ATOM     19  O   LEU A   6      31.653  44.835  38.090  0.00  0.00    -0.286 OA
ENDBRANCH  17  18
BRANCH  17  20
ATOM     20  CB  LEU A   6      29.934  42.168  37.034  0.00  0.00    +0.028 C 
BRANCH  20  21
ATOM     21  CG  LEU A   6      31.326  41.859  36.486  0.00  0.00    +0.002 C 
ATOM     22  CD2 LEU A   6      32.325  41.432  37.572  0.00  0.00    +0.000 C 
ATOM     23  CD1 LEU A   6      31.214  40.759  35.423  0.00  0.00    +0.000 C 
ENDBRANCH  20  21
ENDBRANCH  17  20
ENDBRANCH  15  17
ENDBRANCH   8  13
ENDBRANCH   5   6
BRANCH   5  24
ATOM     24  CB  TYR A   4      24.683  47.548  38.144  0.00  0.00    +0.055 C 
BRANCH  24  25
ATOM     25  CG  TYR A   4      24.336  48.612  37.137  0.00  0.00    -0.020 A 
ATOM     26  CD2 TYR A   4      23.030  49.032  36.938  0.00  0.00    -0.001 A 
ATOM     27  CE2 TYR A   4      22.732  50.053  36.024  0.00  0.00    +0.036 A 
ATOM     28  CZ  TYR A   4      23.734  50.671  35.316  0.00  0.00    +0.134 A 
ATOM     29  CE1 TYR A   4      25.043  50.263  35.522  0.00  0.00    +0.036 A 
ATOM     30  CD1 TYR A   4      25.310  49.272  36.404  0.00  0.00    -0.001 A 
BRANCH  28  31
ATOM     31  OH  TYR A   4      23.505  51.699  34.446  0.00  0.00    -0.506 OA
ATOM     32  HH  TYR A   4      22.533  51.880  34.399  0.00  0.00    +0.292 HD
ENDBRANCH  28  31
ENDBRANCH  24  25
ENDBRANCH   5  24
ENDBRANCH   2   5
BRANCH   1  33
ATOM     33  CA  GLY A   3      24.867  44.016  34.981  0.00  0.00    +0.176 C 
BRANCH  33  35
ATOM     34  C   ILE A   2      25.660  42.879  33.004  0.00  0.00    +0.241 C 
ATOM     35  N   GLY A   3      25.639  42.994  34.309  0.00  0.00    -0.295 N 
ATOM     36  H   GLY A   3      26.196  42.328  34.881  0.00  0.00    +0.150 HD
ATOM     37  O   ILE A   2      25.093  43.657  32.235  0.00  0.00    -0.273 OA
BRANCH  34  38
ATOM     38  CA  ILE A   2      26.510  41.756  32.420  0.00  0.00    +0.148 C 
BRANCH  38  41
ATOM     39  C   LYS A   1      25.201  39.889  31.456  0.00  0.00    +0.238 C 
ATOM     40  O   LYS A   1      25.392  39.155  32.444  0.00  0.00    -0.274 OA
ATOM     41  N   ILE A   2      25.704  41.119  31.389  0.00  0.00    -0.297 N 
ATOM     42  H   ILE A   2      25.505  41.670  30.530  0.00  0.00    +0.150 HD
BRANCH  39  43
ATOM     43  CA  LYS A   1      24.375  39.416  30.271  0.00  0.00    +0.145 C 
BRANCH  43  44
ATOM     44  N   LYS A   1      25.060  38.236  29.744  0.00  0.00    -0.238 NA
ATOM     45  H   LYS A   1      24.878  37.315  30.192  0.00  0.00    +0.142 HD
ENDBRANCH  43  44
BRANCH  43  46
ATOM     46  CB  LYS A   1      22.956  39.057  30.653  0.00  0.00    +0.026 C 
BRANCH  46  47
ATOM     47  CG  LYS A   1      22.144  40.291  31.080  0.00  0.00    -0.000 C 
BRANCH  47  48
ATOM     48  CD  LYS A   1      20.749  39.907  31.522  0.00  0.00    -0.024 C 
BRANCH  48  49
ATOM     49  CE  LYS A   1      20.639  39.367  32.931  0.00  0.00    -0.086 C 
BRANCH  49  50
ATOM     50  NZ  LYS A   1      21.003  40.348  33.958  0.00  0.00    +0.380 N 
ATOM     51  HZ1 LYS A   1      20.906  39.915  34.899  0.00  0.00    -0.089 HD
ATOM     52  HZ2 LYS A   1      20.372  41.172  33.888  0.00  0.00    -0.089 HD
ATOM     53  HZ3 LYS A   1      21.988  40.650  33.814  0.00  0.00    -0.089 HD
ENDBRANCH  49  50
ENDBRANCH  48  49
ENDBRANCH  47  48
ENDBRANCH  46  47
ENDBRANCH  43  46
ENDBRANCH  39  43
ENDBRANCH  38  41
BRANCH  38  54
ATOM     54  CB  ILE A   2      27.852  42.266  31.881  0.00  0.00    +0.027 C 
ATOM     55  CG2 ILE A   2      28.534  43.114  32.939  0.00  0.00    +0.002 C 
BRANCH  54  56
ATOM     56  CG1 ILE A   2      28.726  41.074  31.454  0.00  0.00    +0.002 C 
ATOM     57  CD1 ILE A   2      30.127  41.407  30.961  0.00  0.00    +0.000 C 
ENDBRANCH  54  56
ENDBRANCH  38  54
ENDBRANCH  34  38
ENDBRANCH  33  35
ENDBRANCH   1  33
TORSDOF 23
REMARK  Name = ../refined-set-2016/3w07/3w07_pocket.pdb
REMARK  203 active torsions:
REMARK  status: ('A' for Active; 'I' for Inactive)
REMARK    1  A    between atoms: _1  and  _3
REMARK    2  A    between atoms: _3  and  _4
REMARK    3  A    between atoms: _3  and  _6
REMARK    4  A    between atoms: _6  and  _7
REMARK    5  A    between atoms: _10  and  _12
REMARK    6  A    between atoms: _12  and  _13
REMARK    7  A    between atoms: _12  and  _15
REMARK    8  A    between atoms: _15  and  _16
REMARK    9  A    between atoms: _19  and  _21
REMARK   10  A    between atoms: _21  and  _22
REMARK   11  A    between atoms: _25  and  _27
REMARK   12  A    between atoms: _27  and  _28
REMARK   13  A    between atoms: _27  and  _30
REMARK   14  A    between atoms: _30  and  _31
REMARK   15  A    between atoms: _31  and  _32
REMARK   16  A    between atoms: _34  and  _36
REMARK   17  A    between atoms: _36  and  _37
REMARK   18  A    between atoms: _36  and  _39
REMARK   19  A    between atoms: _39  and  _40
REMARK   20  A    between atoms: _43  and  _45
REMARK   21  A    between atoms: _45  and  _46
REMARK   22  A    between atoms: _45  and  _48
REMARK   23  A    between atoms: _48  and  _49
REMARK   24  A    between atoms: _49  and  _50
REMARK   25  A    between atoms: _50  and  _51
REMARK   26  A    between atoms: _51  and  _52
REMARK   27  A    between atoms: _56  and  _58
REMARK   28  A    between atoms: _58  and  _59
REMARK   29  A    between atoms: _58  and  _61
REMARK   30  A    between atoms: _61  and  _62
REMARK   31  A    between atoms: _65  and  _67
REMARK   32  A    between atoms: _67  and  _68
REMARK   33  A    between atoms: _70  and  _72
REMARK   34  A    between atoms: _72  and  _73
REMARK   35  A    between atoms: _72  and  _75
REMARK   36  A    between atoms: _75  and  _76
REMARK   37  A    between atoms: _81  and  _82
REMARK   38  A    between atoms: _85  and  _86
REMARK   39  A    between atoms: _91  and  _93
REMARK   40  A    between atoms: _93  and  _94
REMARK   41  A    between atoms: _93  and  _96
REMARK   42  A    between atoms: _96  and  _97
REMARK   43  A    between atoms: _100  and  _102
REMARK   44  A    between atoms: _102  and  _103
REMARK   45  A    between atoms: _102  and  _105
REMARK   46  A    between atoms: _105  and  _106
REMARK   47  A    between atoms: _109  and  _111
REMARK   48  A    between atoms: _111  and  _112
REMARK   49  A    between atoms: _111  and  _114
REMARK   50  A    between atoms: _114  and  _115
REMARK   51  A    between atoms: _115  and  _116
REMARK   52  A    between atoms: _116  and  _117
REMARK   53  A    between atoms: _117  and  _118
REMARK   54  A    between atoms: _122  and  _124
REMARK   55  A    between atoms: _124  and  _125
REMARK   56  A    between atoms: _124  and  _127
REMARK   57  A    between atoms: _127  and  _128
REMARK   58  A    between atoms: _131  and  _133
REMARK   59  A    between atoms: _133  and  _134
REMARK   60  A    between atoms: _133  and  _136
REMARK   61  A    between atoms: _136  and  _137
REMARK   62  A    between atoms: _142  and  _144
REMARK   63  A    between atoms: _144  and  _145
REMARK   64  A    between atoms: _144  and  _147
REMARK   65  A    between atoms: _147  and  _148
REMARK   66  A    between atoms: _151  and  _153
REMARK   67  A    between atoms: _153  and  _154
REMARK   68  A    between atoms: _153  and  _156
REMARK   69  A    between atoms: _156  and  _157
REMARK   70  A    between atoms: _160  and  _162
REMARK   71  A    between atoms: _162  and  _163
REMARK   72  A    between atoms: _162  and  _165
REMARK   73  A    between atoms: _165  and  _166
REMARK   74  A    between atoms: _166  and  _167
REMARK   75  A    between atoms: _170  and  _172
REMARK   76  A    between atoms: _172  and  _173
REMARK   77  A    between atoms: _172  and  _175
REMARK   78  A    between atoms: _175  and  _176
REMARK   79  A    between atoms: _176  and  _177
REMARK   80  A    between atoms: _179  and  _181
REMARK   81  A    between atoms: _181  and  _182
REMARK   82  A    between atoms: _181  and  _184
REMARK   83  A    between atoms: _184  and  _185
REMARK   84  A    between atoms: _187  and  _189
REMARK   85  A    between atoms: _189  and  _190
REMARK   86  A    between atoms: _189  and  _192
REMARK   87  A    between atoms: _192  and  _193
REMARK   88  A    between atoms: _198  and  _200
REMARK   89  A    between atoms: _200  and  _201
REMARK   90  A    between atoms: _204  and  _206
REMARK   91  A    between atoms: _206  and  _207
REMARK   92  A    between atoms: _206  and  _209
REMARK   93  A    between atoms: _209  and  _210
REMARK   94  A    between atoms: _213  and  _215
REMARK   95  A    between atoms: _215  and  _216
REMARK   96  A    between atoms: _215  and  _218
REMARK   97  A    between atoms: _221  and  _223
REMARK   98  A    between atoms: _223  and  _224
REMARK   99  A    between atoms: _227  and  _228
REMARK  100  A    between atoms: _233  and  _235
REMARK  101  A    between atoms: _235  and  _236
REMARK  102  A    between atoms: _235  and  _238
REMARK  103  A    between atoms: _238  and  _239
REMARK  104  A    between atoms: _241  and  _243
REMARK  105  A    between atoms: _243  and  _244
REMARK  106  A    between atoms: _243  and  _246
REMARK  107  A    between atoms: _246  and  _247
REMARK  108  A    between atoms: _250  and  _252
REMARK  109  A    between atoms: _252  and  _253
REMARK  110  A    between atoms: _252  and  _255
REMARK  111  A    between atoms: _255  and  _256
REMARK  112  A    between atoms: _256  and  _257
REMARK  113  A    between atoms: _257  and  _258
REMARK  114  A    between atoms: _267  and  _269
REMARK  115  A    between atoms: _269  and  _270
REMARK  116  A    between atoms: _269  and  _272
REMARK  117  A    between atoms: _272  and  _273
REMARK  118  A    between atoms: _276  and  _277
REMARK  119  A    between atoms: _282  and  _284
REMARK  120  A    between atoms: _284  and  _285
REMARK  121  A    between atoms: _287  and  _289
REMARK  122  A    between atoms: _289  and  _290
REMARK  123  A    between atoms: _289  and  _292
REMARK  124  A    between atoms: _295  and  _297
REMARK  125  A    between atoms: _297  and  _298
REMARK  126  A    between atoms: _300  and  _302
REMARK  127  A    between atoms: _302  and  _303
REMARK  128  A    between atoms: _306  and  _308
REMARK  129  A    between atoms: _308  and  _309
REMARK  130  A    between atoms: _308  and  _311
REMARK  131  A    between atoms: _311  and  _312
REMARK  132  A    between atoms: _312  and  _313
REMARK  133  A    between atoms: _318  and  _320
REMARK  134  A    between atoms: _320  and  _321
REMARK  135  A    between atoms: _323  and  _325
REMARK  136  A    between atoms: _325  and  _326
REMARK  137  A    between atoms: _328  and  _330
REMARK  138  A    between atoms: _330  and  _331
REMARK  139  A    between atoms: _330  and  _333
REMARK  140  A    between atoms: _333  and  _334
REMARK  141  A    between atoms: _337  and  _339
REMARK  142  A    between atoms: _339  and  _340
REMARK  143  A    between atoms: _339  and  _342
REMARK  144  A    between atoms: _345  and  _347
REMARK  145  A    between atoms: _347  and  _348
REMARK  146  A    between atoms: _350  and  _352
REMARK  147  A    between atoms: _352  and  _353
REMARK  148  A    between atoms: _352  and  _355
REMARK  149  A    between atoms: _355  and  _356
REMARK  150  A    between atoms: _356  and  _357
REMARK  151  A    between atoms: _357  and  _358
REMARK  152  A    between atoms: _367  and  _369
REMARK  153  A    between atoms: _369  and  _370
REMARK  154  A    between atoms: _369  and  _372
REMARK  155  A    between atoms: _372  and  _373
REMARK  156  A    between atoms: _375  and  _377
REMARK  157  A    between atoms: _377  and  _378
REMARK  158  A    between atoms: _377  and  _380
REMARK  159  A    between atoms: _380  and  _381
REMARK  160  A    between atoms: _384  and  _386
REMARK  161  A    between atoms: _386  and  _387
REMARK  162  A    between atoms: _386  and  _389
REMARK  163  A    between atoms: _389  and  _390
REMARK  164  A    between atoms: _395  and  _396
REMARK  165  A    between atoms: _398  and  _400
REMARK  166  A    between atoms: _400  and  _401
REMARK  167  A    between atoms: _400  and  _403
REMARK  168  A    between atoms: _403  and  _404
REMARK  169  A    between atoms: _407  and  _409
REMARK  170  A    between atoms: _409  and  _410
REMARK  171  A    between atoms: _413  and  _415
REMARK  172  A    between atoms: _415  and  _416
REMARK  173  A    between atoms: _415  and  _418
REMARK  174  A    between atoms: _418  and  _419
REMARK  175  A    between atoms: _422  and  _424
REMARK  176  A    between atoms: _424  and  _425
REMARK  177  A    between atoms: _424  and  _427
REMARK  178  A    between atoms: _427  and  _428
REMARK  179  A    between atoms: _432  and  _433
REMARK  180  A    between atoms: _438  and  _440
REMARK  181  A    between atoms: _440  and  _441
REMARK  182  A    between atoms: _440  and  _443
REMARK  183  A    between atoms: _443  and  _444
REMARK  184  A    between atoms: _444  and  _445
REMARK  185  A    between atoms: _448  and  _450
REMARK  186  A    between atoms: _450  and  _451
REMARK  187  A    between atoms: _450  and  _453
REMARK  188  A    between atoms: _453  and  _454
REMARK  189  A    between atoms: _457  and  _459
REMARK  190  A    between atoms: _459  and  _460
REMARK  191  A    between atoms: _459  and  _462
REMARK  192  A    between atoms: _462  and  _463
REMARK  193  A    between atoms: _468  and  _470
REMARK  194  A    between atoms: _470  and  _471
REMARK  195  A    between atoms: _470  and  _473
REMARK  196  A    between atoms: _473  and  _474
REMARK  197  A    between atoms: _474  and  _475
REMARK  198  A    between atoms: _475  and  _476
REMARK  199  A    between atoms: _476  and  _477
REMARK  200  A    between atoms: _481  and  _483
REMARK  201  A    between atoms: _483  and  _484
REMARK  202  A    between atoms: _483  and  _486
REMARK  203  A    between atoms: _486  and  _487
REMARK                            x       y       z     vdW  Elec       q    Type
REMARK                         _______ _______ _______ _____ _____    ______ ____
ROOT
ATOM      1  CA  ASP A   1      21.388  44.707  31.881  0.00  0.00    +0.144 C 
ENDROOT
BRANCH   1   2
ATOM      2  N   ASP A   1      22.681  44.702  31.186  0.00  0.00    -0.239 NA
ATOM      3  H   ASP A   1      23.461  44.139  31.581  0.00  0.00    +0.142 HD
ENDBRANCH   1   2
BRANCH   1   4
ATOM      4  C   ASP A   1      21.364  45.854  32.878  0.00  0.00    +0.225 C 
ATOM      5  O   ASP A   1      21.494  45.676  34.085  0.00  0.00    -0.287 OA
ENDBRANCH   1   4
BRANCH   1   6
ATOM      6  CB  ASP A   1      21.061  43.422  32.548  0.00  0.00    +0.139 C 
BRANCH   6   7
ATOM      7  CG  ASP A   1      19.627  43.384  33.041  0.00  0.00    +0.367 C 
ATOM      8  OD2 ASP A   1      19.255  42.305  33.632  0.00  0.00    -0.246 OA
ATOM      9  OD1 ASP A   1      18.883  44.358  32.837  0.00  0.00    -0.246 OA
ENDBRANCH   6   7
ENDBRANCH   1   6
TORSDOF 4
REMARK  Name = ../refined-set-2016/3w07/3w07_pocket.pdb
REMARK  203 active torsions:
REMARK  status: ('A' for Active; 'I' for Inactive)
REMARK    1  A    between atoms: _1  and  _3
REMARK    2  A    between atoms: _3  and  _4
REMARK    3  A    between atoms: _3  and  _6
REMARK    4  A    between atoms: _6  and  _7
REMARK    5  A    between atoms: _10  and  _12
REMARK    6  A    between atoms: _12  and  _13
REMARK    7  A    between atoms: _12  and  _15
REMARK    8  A    between atoms: _15  and  _16
REMARK    9  A    between atoms: _19  and  _21
REMARK   10  A    between atoms: _21  and  _22
REMARK   11  A    between atoms: _25  and  _27
REMARK   12  A    between atoms: _27  and  _28
REMARK   13  A    between atoms: _27  and  _30
REMARK   14  A    between atoms: _30  and  _31
REMARK   15  A    between atoms: _31  and  _32
REMARK   16  A    between atoms: _34  and  _36
REMARK   17  A    between atoms: _36  and  _37
REMARK   18  A    between atoms: _36  and  _39
REMARK   19  A    between atoms: _39  and  _40
REMARK   20  A    between atoms: _43  and  _45
REMARK   21  A    between atoms: _45  and  _46
REMARK   22  A    between atoms: _45  and  _48
REMARK   23  A    between atoms: _48  and  _49
REMARK   24  A    between atoms: _49  and  _50
REMARK   25  A    between atoms: _50  and  _51
REMARK   26  A    between atoms: _51  and  _52
REMARK   27  A    between atoms: _56  and  _58
REMARK   28  A    between atoms: _58  and  _59
REMARK   29  A    between atoms: _58  and  _61
REMARK   30  A    between atoms: _61  and  _62
REMARK   31  A    between atoms: _65  and  _67
REMARK   32  A    between atoms: _67  and  _68
REMARK   33  A    between atoms: _70  and  _72
REMARK   34  A    between atoms: _72  and  _73
REMARK   35  A    between atoms: _72  and  _75
REMARK   36  A    between atoms: _75  and  _76
REMARK   37  A    between atoms: _81  and  _82
REMARK   38  A    between atoms: _85  and  _86
REMARK   39  A    between atoms: _91  and  _93
REMARK   40  A    between atoms: _93  and  _94
REMARK   41  A    between atoms: _93  and  _96
REMARK   42  A    between atoms: _96  and  _97
REMARK   43  A    between atoms: _100  and  _102
REMARK   44  A    between atoms: _102  and  _103
REMARK   45  A    between atoms: _102  and  _105
REMARK   46  A    between atoms: _105  and  _106
REMARK   47  A    between atoms: _109  and  _111
REMARK   48  A    between atoms: _111  and  _112
REMARK   49  A    between atoms: _111  and  _114
REMARK   50  A    between atoms: _114  and  _115
REMARK   51  A    between atoms: _115  and  _116
REMARK   52  A    between atoms: _116  and  _117
REMARK   53  A    between atoms: _117  and  _118
REMARK   54  A    between atoms: _122  and  _124
REMARK   55  A    between atoms: _124  and  _125
REMARK   56  A    between atoms: _124  and  _127
REMARK   57  A    between atoms: _127  and  _128
REMARK   58  A    between atoms: _131  and  _133
REMARK   59  A    between atoms: _133  and  _134
REMARK   60  A    between atoms: _133  and  _136
REMARK   61  A    between atoms: _136  and  _137
REMARK   62  A    between atoms: _142  and  _144
REMARK   63  A    between atoms: _144  and  _145
REMARK   64  A    between atoms: _144  and  _147
REMARK   65  A    between atoms: _147  and  _148
REMARK   66  A    between atoms: _151  and  _153
REMARK   67  A    between atoms: _153  and  _154
REMARK   68  A    between atoms: _153  and  _156
REMARK   69  A    between atoms: _156  and  _157
REMARK   70  A    between atoms: _160  and  _162
REMARK   71  A    between atoms: _162  and  _163
REMARK   72  A    between atoms: _162  and  _165
REMARK   73  A    between atoms: _165  and  _166
REMARK   74  A    between atoms: _166  and  _167
REMARK   75  A    between atoms: _170  and  _172
REMARK   76  A    between atoms: _172  and  _173
REMARK   77  A    between atoms: _172  and  _175
REMARK   78  A    between atoms: _175  and  _176
REMARK   79  A    between atoms: _176  and  _177
REMARK   80  A    between atoms: _179  and  _181
REMARK   81  A    between atoms: _181  and  _182
REMARK   82  A    between atoms: _181  and  _184
REMARK   83  A    between atoms: _184  and  _185
REMARK   84  A    between atoms: _187  and  _189
REMARK   85  A    between atoms: _189  and  _190
REMARK   86  A    between atoms: _189  and  _192
REMARK   87  A    between atoms: _192  and  _193
REMARK   88  A    between atoms: _198  and  _200
REMARK   89  A    between atoms: _200  and  _201
REMARK   90  A    between atoms: _204  and  _206
REMARK   91  A    between atoms: _206  and  _207
REMARK   92  A    between atoms: _206  and  _209
REMARK   93  A    between atoms: _209  and  _210
REMARK   94  A    between atoms: _213  and  _215
REMARK   95  A    between atoms: _215  and  _216
REMARK   96  A    between atoms: _215  and  _218
REMARK   97  A    between atoms: _221  and  _223
REMARK   98  A    between atoms: _223  and  _224
REMARK   99  A    between atoms: _227  and  _228
REMARK  100  A    between atoms: _233  and  _235
REMARK  101  A    between atoms: _235  and  _236
REMARK  102  A    between atoms: _235  and  _238
REMARK  103  A    between atoms: _238  and  _239
REMARK  104  A    between atoms: _241  and  _243
REMARK  105  A    between atoms: _243  and  _244
REMARK  106  A    between atoms: _243  and  _246
REMARK  107  A    between atoms: _246  and  _247
REMARK  108  A    between atoms: _250  and  _252
REMARK  109  A    between atoms: _252  and  _253
REMARK  110  A    between atoms: _252  and  _255
REMARK  111  A    between atoms: _255  and  _256
REMARK  112  A    between atoms: _256  and  _257
REMARK  113  A    between atoms: _257  and  _258
REMARK  114  A    between atoms: _267  and  _269
REMARK  115  A    between atoms: _269  and  _270
REMARK  116  A    between atoms: _269  and  _272
REMARK  117  A    between atoms: _272  and  _273
REMARK  118  A    between atoms: _276  and  _277
REMARK  119  A    between atoms: _282  and  _284
REMARK  120  A    between atoms: _284  and  _285
REMARK  121  A    between atoms: _287  and  _289
REMARK  122  A    between atoms: _289  and  _290
REMARK  123  A    between atoms: _289  and  _292
REMARK  124  A    between atoms: _295  and  _297
REMARK  125  A    between atoms: _297  and  _298
REMARK  126  A    between atoms: _300  and  _302
REMARK  127  A    between atoms: _302  and  _303
REMARK  128  A    between atoms: _306  and  _308
REMARK  129  A    between atoms: _308  and  _309
REMARK  130  A    between atoms: _308  and  _311
REMARK  131  A    between atoms: _311  and  _312
REMARK  132  A    between atoms: _312  and  _313
REMARK  133  A    between atoms: _318  and  _320
REMARK  134  A    between atoms: _320  and  _321
REMARK  135  A    between atoms: _323  and  _325
REMARK  136  A    between atoms: _325  and  _326
REMARK  137  A    between atoms: _328  and  _330
REMARK  138  A    between atoms: _330  and  _331
REMARK  139  A    between atoms: _330  and  _333
REMARK  140  A    between atoms: _333  and  _334
REMARK  141  A    between atoms: _337  and  _339
REMARK  142  A    between atoms: _339  and  _340
REMARK  143  A    between atoms: _339  and  _342
REMARK  144  A    between atoms: _345  and  _347
REMARK  145  A    between atoms: _347  and  _348
REMARK  146  A    between atoms: _350  and  _352
REMARK  147  A    between atoms: _352  and  _353
REMARK  148  A    between atoms: _352  and  _355
REMARK  149  A    between atoms: _355  and  _356
REMARK  150  A    between atoms: _356  and  _357
REMARK  151  A    between atoms: _357  and  _358
REMARK  152  A    between atoms: _367  and  _369
REMARK  153  A    between atoms: _369  and  _370
REMARK  154  A    between atoms: _369  and  _372
REMARK  155  A    between atoms: _372  and  _373
REMARK  156  A    between atoms: _375  and  _377
REMARK  157  A    between atoms: _377  and  _378
REMARK  158  A    between atoms: _377  and  _380
REMARK  159  A    between atoms: _380  and  _381
REMARK  160  A    between atoms: _384  and  _386
REMARK  161  A    between atoms: _386  and  _387
REMARK  162  A    between atoms: _386  and  _389
REMARK  163  A    between atoms: _389  and  _390
REMARK  164  A    between atoms: _395  and  _396
REMARK  165  A    between atoms: _398  and  _400
REMARK  166  A    between atoms: _400  and  _401
REMARK  167  A    between atoms: _400  and  _403
REMARK  168  A    between atoms: _403  and  _404
REMARK  169  A    between atoms: _407  and  _409
REMARK  170  A    between atoms: _409  and  _410
REMARK  171  A    between atoms: _413  and  _415
REMARK  172  A    between atoms: _415  and  _416
REMARK  173  A    between atoms: _415  and  _418
REMARK  174  A    between atoms: _418  and  _419
REMARK  175  A    between atoms: _422  and  _424
REMARK  176  A    between atoms: _424  and  _425
REMARK  177  A    between atoms: _424  and  _427
REMARK  178  A    between atoms: _427  and  _428
REMARK  179  A    between atoms: _432  and  _433
REMARK  180  A    between atoms: _438  and  _440
REMARK  181  A    between atoms: _440  and  _441
REMARK  182  A    between atoms: _440  and  _443
REMARK  183  A    between atoms: _443  and  _444
REMARK  184  A    between atoms: _444  and  _445
REMARK  185  A    between atoms: _448  and  _450
REMARK  186  A    between atoms: _450  and  _451
REMARK  187  A    between atoms: _450  and  _453
REMARK  188  A    between atoms: _453  and  _454
REMARK  189  A    between atoms: _457  and  _459
REMARK  190  A    between atoms: _459  and  _460
REMARK  191  A    between atoms: _459  and  _462
REMARK  192  A    between atoms: _462  and  _463
REMARK  193  A    between atoms: _468  and  _470
REMARK  194  A    between atoms: _470  and  _471
REMARK  195  A    between atoms: _470  and  _473
REMARK  196  A    between atoms: _473  and  _474
REMARK  197  A    between atoms: _474  and  _475
REMARK  198  A    between atoms: _475  and  _476
REMARK  199  A    between atoms: _476  and  _477
REMARK  200  A    between atoms: _481  and  _483
REMARK  201  A    between atoms: _483  and  _484
REMARK  202  A    between atoms: _483  and  _486
REMARK  203  A    between atoms: _486  and  _487
REMARK                            x       y       z     vdW  Elec       q    Type
REMARK                         _______ _______ _______ _____ _____    ______ ____
ROOT
ATOM      1  CG  LYS A   1      17.263  46.483  34.700  0.00  0.00    -0.000 C 
ENDROOT
BRANCH   1   2
ATOM      2  CB  LYS A   1      17.240  48.033  34.852  0.00  0.00    +0.025 C 
BRANCH   2   3
ATOM      3  CA  LYS A   1      17.558  48.583  33.421  0.00  0.00    +0.133 C 
BRANCH   3   4
ATOM      4  N   LYS A   1      18.911  48.208  32.976  0.00  0.00    -0.239 NA
ATOM      5  H   LYS A   1      19.040  47.455  32.271  0.00  0.00    +0.142 HD
ENDBRANCH   3   4
BRANCH   3   6
ATOM      6  C   LYS A   1      17.355  50.077  33.356  0.00  0.00    +0.224 C 
ATOM      7  O   LYS A   1      16.863  50.717  34.282  0.00  0.00    -0.287 OA
ENDBRANCH   3   6
ENDBRANCH   2   3
ENDBRANCH   1   2
BRANCH   1   8
ATOM      8  CD  LYS A   1      16.712  45.883  35.924  0.00  0.00    -0.024 C 
BRANCH   8   9
ATOM      9  CE  LYS A   1      16.386  44.460  35.456  0.00  0.00    -0.086 C 
BRANCH   9  10
ATOM     10  NZ  LYS A   1      17.606  43.591  35.459  0.00  0.00    +0.380 N 
ATOM     11  HZ1 LYS A   1      17.993  43.542  36.423  0.00  0.00    -0.089 HD
ATOM     12  HZ2 LYS A   1      17.350  42.636  35.137  0.00  0.00    -0.089 HD
ATOM     13  HZ3 LYS A   1      18.319  43.995  34.819  0.00  0.00    -0.089 HD
ENDBRANCH   9  10
ENDBRANCH   8   9
ENDBRANCH   1   8
TORSDOF 7
REMARK  Name = ../refined-set-2016/3w07/3w07_pocket.pdb
REMARK  203 active torsions:
REMARK  status: ('A' for Active; 'I' for Inactive)
REMARK    1  A    between atoms: _1  and  _3
REMARK    2  A    between atoms: _3  and  _4
REMARK    3  A    between atoms: _3  and  _6
REMARK    4  A    between atoms: _6  and  _7
REMARK    5  A    between atoms: _10  and  _12
REMARK    6  A    between atoms: _12  and  _13
REMARK    7  A    between atoms: _12  and  _15
REMARK    8  A    between atoms: _15  and  _16
REMARK    9  A    between atoms: _19  and  _21
REMARK   10  A    between atoms: _21  and  _22
REMARK   11  A    between atoms: _25  and  _27
REMARK   12  A    between atoms: _27  and  _28
REMARK   13  A    between atoms: _27  and  _30
REMARK   14  A    between atoms: _30  and  _31
REMARK   15  A    between atoms: _31  and  _32
REMARK   16  A    between atoms: _34  and  _36
REMARK   17  A    between atoms: _36  and  _37
REMARK   18  A    between atoms: _36  and  _39
REMARK   19  A    between atoms: _39  and  _40
REMARK   20  A    between atoms: _43  and  _45
REMARK   21  A    between atoms: _45  and  _46
REMARK   22  A    between atoms: _45  and  _48
REMARK   23  A    between atoms: _48  and  _49
REMARK   24  A    between atoms: _49  and  _50
REMARK   25  A    between atoms: _50  and  _51
REMARK   26  A    between atoms: _51  and  _52
REMARK   27  A    between atoms: _56  and  _58
REMARK   28  A    between atoms: _58  and  _59
REMARK   29  A    between atoms: _58  and  _61
REMARK   30  A    between atoms: _61  and  _62
REMARK   31  A    between atoms: _65  and  _67
REMARK   32  A    between atoms: _67  and  _68
REMARK   33  A    between atoms: _70  and  _72
REMARK   34  A    between atoms: _72  and  _73
REMARK   35  A    between atoms: _72  and  _75
REMARK   36  A    between atoms: _75  and  _76
REMARK   37  A    between atoms: _81  and  _82
REMARK   38  A    between atoms: _85  and  _86
REMARK   39  A    between atoms: _91  and  _93
REMARK   40  A    between atoms: _93  and  _94
REMARK   41  A    between atoms: _93  and  _96
REMARK   42  A    between atoms: _96  and  _97
REMARK   43  A    between atoms: _100  and  _102
REMARK   44  A    between atoms: _102  and  _103
REMARK   45  A    between atoms: _102  and  _105
REMARK   46  A    between atoms: _105  and  _106
REMARK   47  A    between atoms: _109  and  _111
REMARK   48  A    between atoms: _111  and  _112
REMARK   49  A    between atoms: _111  and  _114
REMARK   50  A    between atoms: _114  and  _115
REMARK   51  A    between atoms: _115  and  _116
REMARK   52  A    between atoms: _116  and  _117
REMARK   53  A    between atoms: _117  and  _118
REMARK   54  A    between atoms: _122  and  _124
REMARK   55  A    between atoms: _124  and  _125
REMARK   56  A    between atoms: _124  and  _127
REMARK   57  A    between atoms: _127  and  _128
REMARK   58  A    between atoms: _131  and  _133
REMARK   59  A    between atoms: _133  and  _134
REMARK   60  A    between atoms: _133  and  _136
REMARK   61  A    between atoms: _136  and  _137
REMARK   62  A    between atoms: _142  and  _144
REMARK   63  A    between atoms: _144  and  _145
REMARK   64  A    between atoms: _144  and  _147
REMARK   65  A    between atoms: _147  and  _148
REMARK   66  A    between atoms: _151  and  _153
REMARK   67  A    between atoms: _153  and  _154
REMARK   68  A    between atoms: _153  and  _156
REMARK   69  A    between atoms: _156  and  _157
REMARK   70  A    between atoms: _160  and  _162
REMARK   71  A    between atoms: _162  and  _163
REMARK   72  A    between atoms: _162  and  _165
REMARK   73  A    between atoms: _165  and  _166
REMARK   74  A    between atoms: _166  and  _167
REMARK   75  A    between atoms: _170  and  _172
REMARK   76  A    between atoms: _172  and  _173
REMARK   77  A    between atoms: _172  and  _175
REMARK   78  A    between atoms: _175  and  _176
REMARK   79  A    between atoms: _176  and  _177
REMARK   80  A    between atoms: _179  and  _181
REMARK   81  A    between atoms: _181  and  _182
REMARK   82  A    between atoms: _181  and  _184
REMARK   83  A    between atoms: _184  and  _185
REMARK   84  A    between atoms: _187  and  _189
REMARK   85  A    between atoms: _189  and  _190
REMARK   86  A    between atoms: _189  and  _192
REMARK   87  A    between atoms: _192  and  _193
REMARK   88  A    between atoms: _198  and  _200
REMARK   89  A    between atoms: _200  and  _201
REMARK   90  A    between atoms: _204  and  _206
REMARK   91  A    between atoms: _206  and  _207
REMARK   92  A    between atoms: _206  and  _209
REMARK   93  A    between atoms: _209  and  _210
REMARK   94  A    between atoms: _213  and  _215
REMARK   95  A    between atoms: _215  and  _216
REMARK   96  A    between atoms: _215  and  _218
REMARK   97  A    between atoms: _221  and  _223
REMARK   98  A    between atoms: _223  and  _224
REMARK   99  A    between atoms: _227  and  _228
REMARK  100  A    between atoms: _233  and  _235
REMARK  101  A    between atoms: _235  and  _236
REMARK  102  A    between atoms: _235  and  _238
REMARK  103  A    between atoms: _238  and  _239
REMARK  104  A    between atoms: _241  and  _243
REMARK  105  A    between atoms: _243  and  _244
REMARK  106  A    between atoms: _243  and  _246
REMARK  107  A    between atoms: _246  and  _247
REMARK  108  A    between atoms: _250  and  _252
REMARK  109  A    between atoms: _252  and  _253
REMARK  110  A    between atoms: _252  and  _255
REMARK  111  A    between atoms: _255  and  _256
REMARK  112  A    between atoms: _256  and  _257
REMARK  113  A    between atoms: _257  and  _258
REMARK  114  A    between atoms: _267  and  _269
REMARK  115  A    between atoms: _269  and  _270
REMARK  116  A    between atoms: _269  and  _272
REMARK  117  A    between atoms: _272  and  _273
REMARK  118  A    between atoms: _276  and  _277
REMARK  119  A    between atoms: _282  and  _284
REMARK  120  A    between atoms: _284  and  _285
REMARK  121  A    between atoms: _287  and  _289
REMARK  122  A    between atoms: _289  and  _290
REMARK  123  A    between atoms: _289  and  _292
REMARK  124  A    between atoms: _295  and  _297
REMARK  125  A    between atoms: _297  and  _298
REMARK  126  A    between atoms: _300  and  _302
REMARK  127  A    between atoms: _302  and  _303
REMARK  128  A    between atoms: _306  and  _308
REMARK  129  A    between atoms: _308  and  _309
REMARK  130  A    between atoms: _308  and  _311
REMARK  131  A    between atoms: _311  and  _312
REMARK  132  A    between atoms: _312  and  _313
REMARK  133  A    between atoms: _318  and  _320
REMARK  134  A    between atoms: _320  and  _321
REMARK  135  A    between atoms: _323  and  _325
REMARK  136  A    between atoms: _325  and  _326
REMARK  137  A    between atoms: _328  and  _330
REMARK  138  A    between atoms: _330  and  _331
REMARK  139  A    between atoms: _330  and  _333
REMARK  140  A    between atoms: _333  and  _334
REMARK  141  A    between atoms: _337  and  _339
REMARK  142  A    between atoms: _339  and  _340
REMARK  143  A    between atoms: _339  and  _342
REMARK  144  A    between atoms: _345  and  _347
REMARK  145  A    between atoms: _347  and  _348
REMARK  146  A    between atoms: _350  and  _352
REMARK  147  A    between atoms: _352  and  _353
REMARK  148  A    between atoms: _352  and  _355
REMARK  149  A    between atoms: _355  and  _356
REMARK  150  A    between atoms: _356  and  _357
REMARK  151  A    between atoms: _357  and  _358
REMARK  152  A    between atoms: _367  and  _369
REMARK  153  A    between atoms: _369  and  _370
REMARK  154  A    between atoms: _369  and  _372
REMARK  155  A    between atoms: _372  and  _373
REMARK  156  A    between atoms: _375  and  _377
REMARK  157  A    between atoms: _377  and  _378
REMARK  158  A    between atoms: _377  and  _380
REMARK  159  A    between atoms: _380  and  _381
REMARK  160  A    between atoms: _384  and  _386
REMARK  161  A    between atoms: _386  and  _387
REMARK  162  A    between atoms: _386  and  _389
REMARK  163  A    between atoms: _389  and  _390
REMARK  164  A    between atoms: _395  and  _396
REMARK  165  A    between atoms: _398  and  _400
REMARK  166  A    between atoms: _400  and  _401
REMARK  167  A    between atoms: _400  and  _403
REMARK  168  A    between atoms: _403  and  _404
REMARK  169  A    between atoms: _407  and  _409
REMARK  170  A    between atoms: _409  and  _410
REMARK  171  A    between atoms: _413  and  _415
REMARK  172  A    between atoms: _415  and  _416
REMARK  173  A    between atoms: _415  and  _418
REMARK  174  A    between atoms: _418  and  _419
REMARK  175  A    between atoms: _422  and  _424
REMARK  176  A    between atoms: _424  and  _425
REMARK  177  A    between atoms: _424  and  _427
REMARK  178  A    between atoms: _427  and  _428
REMARK  179  A    between atoms: _432  and  _433
REMARK  180  A    between atoms: _438  and  _440
REMARK  181  A    between atoms: _440  and  _441
REMARK  182  A    between atoms: _440  and  _443
REMARK  183  A    between atoms: _443  and  _444
REMARK  184  A    between atoms: _444  and  _445
REMARK  185  A    between atoms: _448  and  _450
REMARK  186  A    between atoms: _450  and  _451
REMARK  187  A    between atoms: _450  and  _453
REMARK  188  A    between atoms: _453  and  _454
REMARK  189  A    between atoms: _457  and  _459
REMARK  190  A    between atoms: _459  and  _460
REMARK  191  A    between atoms: _459  and  _462
REMARK  192  A    between atoms: _462  and  _463
REMARK  193  A    between atoms: _468  and  _470
REMARK  194  A    between atoms: _470  and  _471
REMARK  195  A    between atoms: _470  and  _473
REMARK  196  A    between atoms: _473  and  _474
REMARK  197  A    between atoms: _474  and  _475
REMARK  198  A    between atoms: _475  and  _476
REMARK  199  A    between atoms: _476  and  _477
REMARK  200  A    between atoms: _481  and  _483
REMARK  201  A    between atoms: _483  and  _484
REMARK  202  A    between atoms: _483  and  _486
REMARK  203  A    between atoms: _486  and  _487
REMARK                            x       y       z     vdW  Elec       q    Type
REMARK                         _______ _______ _______ _____ _____    ______ ____
ROOT
ATOM      1  CA  ILE A   1      18.173  46.540  28.568  0.00  0.00    +0.133 C 
ENDROOT
BRANCH   1   2
ATOM      2  N   ILE A   1      19.533  46.718  28.083  0.00  0.00    -0.239 NA
ATOM      3  H   ILE A   1      20.319  46.534  28.739  0.00  0.00    +0.142 HD
ENDBRANCH   1   2
BRANCH   1   4
ATOM      4  CB  ILE A   1      18.077  45.353  29.547  0.00  0.00    +0.023 C 
ATOM      5  CG2 ILE A   1      16.694  45.287  30.179  0.00  0.00    +0.002 C 
BRANCH   4   6
ATOM      6  CG1 ILE A   1      18.435  44.047  28.830  0.00  0.00    +0.002 C 
ATOM      7  CD1 ILE A   1      18.610  42.834  29.687  0.00  0.00    +0.000 C 
ENDBRANCH   4   6
ENDBRANCH   1   4
BRANCH   1   8
ATOM      8  C   ILE A   1      17.688  47.831  29.219  0.00  0.00    +0.224 C 
ATOM      9  O   ILE A   1      18.376  48.404  30.070  0.00  0.00    -0.287 OA
ENDBRANCH   1   8
TORSDOF 4
REMARK  Name = ../refined-set-2016/3w07/3w07_pocket.pdb
REMARK  203 active torsions:
REMARK  status: ('A' for Active; 'I' for Inactive)
REMARK    1  A    between atoms: _1  and  _3
REMARK    2  A    between atoms: _3  and  _4
REMARK    3  A    between atoms: _3  and  _6
REMARK    4  A    between atoms: _6  and  _7
REMARK    5  A    between atoms: _10  and  _12
REMARK    6  A    between atoms: _12  and  _13
REMARK    7  A    between atoms: _12  and  _15
REMARK    8  A    between atoms: _15  and  _16
REMARK    9  A    between atoms: _19  and  _21
REMARK   10  A    between atoms: _21  and  _22
REMARK   11  A    between atoms: _25  and  _27
REMARK   12  A    between atoms: _27  and  _28
REMARK   13  A    between atoms: _27  and  _30
REMARK   14  A    between atoms: _30  and  _31
REMARK   15  A    between atoms: _31  and  _32
REMARK   16  A    between atoms: _34  and  _36
REMARK   17  A    between atoms: _36  and  _37
REMARK   18  A    between atoms: _36  and  _39
REMARK   19  A    between atoms: _39  and  _40
REMARK   20  A    between atoms: _43  and  _45
REMARK   21  A    between atoms: _45  and  _46
REMARK   22  A    between atoms: _45  and  _48
REMARK   23  A    between atoms: _48  and  _49
REMARK   24  A    between atoms: _49  and  _50
REMARK   25  A    between atoms: _50  and  _51
REMARK   26  A    between atoms: _51  and  _52
REMARK   27  A    between atoms: _56  and  _58
REMARK   28  A    between atoms: _58  and  _59
REMARK   29  A    between atoms: _58  and  _61
REMARK   30  A    between atoms: _61  and  _62
REMARK   31  A    between atoms: _65  and  _67
REMARK   32  A    between atoms: _67  and  _68
REMARK   33  A    between atoms: _70  and  _72
REMARK   34  A    between atoms: _72  and  _73
REMARK   35  A    between atoms: _72  and  _75
REMARK   36  A    between atoms: _75  and  _76
REMARK   37  A    between atoms: _81  and  _82
REMARK   38  A    between atoms: _85  and  _86
REMARK   39  A    between atoms: _91  and  _93
REMARK   40  A    between atoms: _93  and  _94
REMARK   41  A    between atoms: _93  and  _96
REMARK   42  A    between atoms: _96  and  _97
REMARK   43  A    between atoms: _100  and  _102
REMARK   44  A    between atoms: _102  and  _103
REMARK   45  A    between atoms: _102  and  _105
REMARK   46  A    between atoms: _105  and  _106
REMARK   47  A    between atoms: _109  and  _111
REMARK   48  A    between atoms: _111  and  _112
REMARK   49  A    between atoms: _111  and  _114
REMARK   50  A    between atoms: _114  and  _115
REMARK   51  A    between atoms: _115  and  _116
REMARK   52  A    between atoms: _116  and  _117
REMARK   53  A    between atoms: _117  and  _118
REMARK   54  A    between atoms: _122  and  _124
REMARK   55  A    between atoms: _124  and  _125
REMARK   56  A    between atoms: _124  and  _127
REMARK   57  A    between atoms: _127  and  _128
REMARK   58  A    between atoms: _131  and  _133
REMARK   59  A    between atoms: _133  and  _134
REMARK   60  A    between atoms: _133  and  _136
REMARK   61  A    between atoms: _136  and  _137
REMARK   62  A    between atoms: _142  and  _144
REMARK   63  A    between atoms: _144  and  _145
REMARK   64  A    between atoms: _144  and  _147
REMARK   65  A    between atoms: _147  and  _148
REMARK   66  A    between atoms: _151  and  _153
REMARK   67  A    between atoms: _153  and  _154
REMARK   68  A    between atoms: _153  and  _156
REMARK   69  A    between atoms: _156  and  _157
REMARK   70  A    between atoms: _160  and  _162
REMARK   71  A    between atoms: _162  and  _163
REMARK   72  A    between atoms: _162  and  _165
REMARK   73  A    between atoms: _165  and  _166
REMARK   74  A    between atoms: _166  and  _167
REMARK   75  A    between atoms: _170  and  _172
REMARK   76  A    between atoms: _172  and  _173
REMARK   77  A    between atoms: _172  and  _175
REMARK   78  A    between atoms: _175  and  _176
REMARK   79  A    between atoms: _176  and  _177
REMARK   80  A    between atoms: _179  and  _181
REMARK   81  A    between atoms: _181  and  _182
REMARK   82  A    between atoms: _181  and  _184
REMARK   83  A    between atoms: _184  and  _185
REMARK   84  A    between atoms: _187  and  _189
REMARK   85  A    between atoms: _189  and  _190
REMARK   86  A    between atoms: _189  and  _192
REMARK   87  A    between atoms: _192  and  _193
REMARK   88  A    between atoms: _198  and  _200
REMARK   89  A    between atoms: _200  and  _201
REMARK   90  A    between atoms: _204  and  _206
REMARK   91  A    between atoms: _206  and  _207
REMARK   92  A    between atoms: _206  and  _209
REMARK   93  A    between atoms: _209  and  _210
REMARK   94  A    between atoms: _213  and  _215
REMARK   95  A    between atoms: _215  and  _216
REMARK   96  A    between atoms: _215  and  _218
REMARK   97  A    between atoms: _221  and  _223
REMARK   98  A    between atoms: _223  and  _224
REMARK   99  A    between atoms: _227  and  _228
REMARK  100  A    between atoms: _233  and  _235
REMARK  101  A    between atoms: _235  and  _236
REMARK  102  A    between atoms: _235  and  _238
REMARK  103  A    between atoms: _238  and  _239
REMARK  104  A    between atoms: _241  and  _243
REMARK  105  A    between atoms: _243  and  _244
REMARK  106  A    between atoms: _243  and  _246
REMARK  107  A    between atoms: _246  and  _247
REMARK  108  A    between atoms: _250  and  _252
REMARK  109  A    between atoms: _252  and  _253
REMARK  110  A    between atoms: _252  and  _255
REMARK  111  A    between atoms: _255  and  _256
REMARK  112  A    between atoms: _256  and  _257
REMARK  113  A    between atoms: _257  and  _258
REMARK  114  A    between atoms: _267  and  _269
REMARK  115  A    between atoms: _269  and  _270
REMARK  116  A    between atoms: _269  and  _272
REMARK  117  A    between atoms: _272  and  _273
REMARK  118  A    between atoms: _276  and  _277
REMARK  119  A    between atoms: _282  and  _284
REMARK  120  A    between atoms: _284  and  _285
REMARK  121  A    between atoms: _287  and  _289
REMARK  122  A    between atoms: _289  and  _290
REMARK  123  A    between atoms: _289  and  _292
REMARK  124  A    between atoms: _295  and  _297
REMARK  125  A    between atoms: _297  and  _298
REMARK  126  A    between atoms: _300  and  _302
REMARK  127  A    between atoms: _302  and  _303
REMARK  128  A    between atoms: _306  and  _308
REMARK  129  A    between atoms: _308  and  _309
REMARK  130  A    between atoms: _308  and  _311
REMARK  131  A    between atoms: _311  and  _312
REMARK  132  A    between atoms: _312  and  _313
REMARK  133  A    between atoms: _318  and  _320
REMARK  134  A    between atoms: _320  and  _321
REMARK  135  A    between atoms: _323  and  _325
REMARK  136  A    between atoms: _325  and  _326
REMARK  137  A    between atoms: _328  and  _330
REMARK  138  A    between atoms: _330  and  _331
REMARK  139  A    between atoms: _330  and  _333
REMARK  140  A    between atoms: _333  and  _334
REMARK  141  A    between atoms: _337  and  _339
REMARK  142  A    between atoms: _339  and  _340
REMARK  143  A    between atoms: _339  and  _342
REMARK  144  A    between atoms: _345  and  _347
REMARK  145  A    between atoms: _347  and  _348
REMARK  146  A    between atoms: _350  and  _352
REMARK  147  A    between atoms: _352  and  _353
REMARK  148  A    between atoms: _352  and  _355
REMARK  149  A    between atoms: _355  and  _356
REMARK  150  A    between atoms: _356  and  _357
REMARK  151  A    between atoms: _357  and  _358
REMARK  152  A    between atoms: _367  and  _369
REMARK  153  A    between atoms: _369  and  _370
REMARK  154  A    between atoms: _369  and  _372
REMARK  155  A    between atoms: _372  and  _373
REMARK  156  A    between atoms: _375  and  _377
REMARK  157  A    between atoms: _377  and  _378
REMARK  158  A    between atoms: _377  and  _380
REMARK  159  A    between atoms: _380  and  _381
REMARK  160  A    between atoms: _384  and  _386
REMARK  161  A    between atoms: _386  and  _387
REMARK  162  A    between atoms: _386  and  _389
REMARK  163  A    between atoms: _389  and  _390
REMARK  164  A    between atoms: _395  and  _396
REMARK  165  A    between atoms: _398  and  _400
REMARK  166  A    between atoms: _400  and  _401
REMARK  167  A    between atoms: _400  and  _403
REMARK  168  A    between atoms: _403  and  _404
REMARK  169  A    between atoms: _407  and  _409
REMARK  170  A    between atoms: _409  and  _410
REMARK  171  A    between atoms: _413  and  _415
REMARK  172  A    between atoms: _415  and  _416
REMARK  173  A    between atoms: _415  and  _418
REMARK  174  A    between atoms: _418  and  _419
REMARK  175  A    between atoms: _422  and  _424
REMARK  176  A    between atoms: _424  and  _425
REMARK  177  A    between atoms: _424  and  _427
REMARK  178  A    between atoms: _427  and  _428
REMARK  179  A    between atoms: _432  and  _433
REMARK  180  A    between atoms: _438  and  _440
REMARK  181  A    between atoms: _440  and  _441
REMARK  182  A    between atoms: _440  and  _443
REMARK  183  A    between atoms: _443  and  _444
REMARK  184  A    between atoms: _444  and  _445
REMARK  185  A    between atoms: _448  and  _450
REMARK  186  A    between atoms: _450  and  _451
REMARK  187  A    between atoms: _450  and  _453
REMARK  188  A    between atoms: _453  and  _454
REMARK  189  A    between atoms: _457  and  _459
REMARK  190  A    between atoms: _459  and  _460
REMARK  191  A    between atoms: _459  and  _462
REMARK  192  A    between atoms: _462  and  _463
REMARK  193  A    between atoms: _468  and  _470
REMARK  194  A    between atoms: _470  and  _471
REMARK  195  A    between atoms: _470  and  _473
REMARK  196  A    between atoms: _473  and  _474
REMARK  197  A    between atoms: _474  and  _475
REMARK  198  A    between atoms: _475  and  _476
REMARK  199  A    between atoms: _476  and  _477
REMARK  200  A    between atoms: _481  and  _483
REMARK  201  A    between atoms: _483  and  _484
REMARK  202  A    between atoms: _483  and  _486
REMARK  203  A    between atoms: _486  and  _487
REMARK                            x       y       z     vdW  Elec       q    Type
REMARK                         _______ _______ _______ _____ _____    ______ ____
ROOT
ATOM      1  CB  HIS A   1      12.821  50.441  32.868  0.00  0.00    +0.072 C 
ENDROOT
BRANCH   1   2
ATOM      2  CG  HIS A   1      12.938  49.436  33.981  0.00  0.00    +0.082 A 
ATOM      3  CD2 HIS A   1      13.841  49.316  34.968  0.00  0.00    +0.115 A 
ATOM      4  NE2 HIS A   1      13.447  48.285  35.753  0.00  0.00    -0.221 NA
ATOM      5  CE1 HIS A   1      12.332  47.819  35.212  0.00  0.00    +0.199 A 
ATOM      6  ND1 HIS A   1      11.961  48.488  34.124  0.00  0.00    -0.227 NA
ENDBRANCH   1   2
BRANCH   1   7
ATOM      7  CA  HIS A   1      12.880  49.846  31.456  0.00  0.00    +0.139 C 
BRANCH   7   8
ATOM      8  N   HIS A   1      14.228  49.911  30.915  0.00  0.00    -0.239 NA
ATOM      9  H   HIS A   1      14.955  50.479  31.394  0.00  0.00    +0.142 HD
ENDBRANCH   7   8
BRANCH   7  10
ATOM     10  C   HIS A   1      11.916  50.617  30.577  0.00  0.00    +0.224 C 
ATOM     11  O   HIS A   1      12.186  51.725  30.162  0.00  0.00    -0.287 OA
ENDBRANCH   7  10
ENDBRANCH   1   7
TORSDOF 4
REMARK  Name = ../refined-set-2016/3w07/3w07_pocket.pdb
REMARK  203 active torsions:
REMARK  status: ('A' for Active; 'I' for Inactive)
REMARK    1  A    between atoms: _1  and  _3
REMARK    2  A    between atoms: _3  and  _4
REMARK    3  A    between atoms: _3  and  _6
REMARK    4  A    between atoms: _6  and  _7
REMARK    5  A    between atoms: _10  and  _12
REMARK    6  A    between atoms: _12  and  _13
REMARK    7  A    between atoms: _12  and  _15
REMARK    8  A    between atoms: _15  and  _16
REMARK    9  A    between atoms: _19  and  _21
REMARK   10  A    between atoms: _21  and  _22
REMARK   11  A    between atoms: _25  and  _27
REMARK   12  A    between atoms: _27  and  _28
REMARK   13  A    between atoms: _27  and  _30
REMARK   14  A    between atoms: _30  and  _31
REMARK   15  A    between atoms: _31  and  _32
REMARK   16  A    between atoms: _34  and  _36
REMARK   17  A    between atoms: _36  and  _37
REMARK   18  A    between atoms: _36  and  _39
REMARK   19  A    between atoms: _39  and  _40
REMARK   20  A    between atoms: _43  and  _45
REMARK   21  A    between atoms: _45  and  _46
REMARK   22  A    between atoms: _45  and  _48
REMARK   23  A    between atoms: _48  and  _49
REMARK   24  A    between atoms: _49  and  _50
REMARK   25  A    between atoms: _50  and  _51
REMARK   26  A    between atoms: _51  and  _52
REMARK   27  A    between atoms: _56  and  _58
REMARK   28  A    between atoms: _58  and  _59
REMARK   29  A    between atoms: _58  and  _61
REMARK   30  A    between atoms: _61  and  _62
REMARK   31  A    between atoms: _65  and  _67
REMARK   32  A    between atoms: _67  and  _68
REMARK   33  A    between atoms: _70  and  _72
REMARK   34  A    between atoms: _72  and  _73
REMARK   35  A    between atoms: _72  and  _75
REMARK   36  A    between atoms: _75  and  _76
REMARK   37  A    between atoms: _81  and  _82
REMARK   38  A    between atoms: _85  and  _86
REMARK   39  A    between atoms: _91  and  _93
REMARK   40  A    between atoms: _93  and  _94
REMARK   41  A    between atoms: _93  and  _96
REMARK   42  A    between atoms: _96  and  _97
REMARK   43  A    between atoms: _100  and  _102
REMARK   44  A    between atoms: _102  and  _103
REMARK   45  A    between atoms: _102  and  _105
REMARK   46  A    between atoms: _105  and  _106
REMARK   47  A    between atoms: _109  and  _111
REMARK   48  A    between atoms: _111  and  _112
REMARK   49  A    between atoms: _111  and  _114
REMARK   50  A    between atoms: _114  and  _115
REMARK   51  A    between atoms: _115  and  _116
REMARK   52  A    between atoms: _116  and  _117
REMARK   53  A    between atoms: _117  and  _118
REMARK   54  A    between atoms: _122  and  _124
REMARK   55  A    between atoms: _124  and  _125
REMARK   56  A    between atoms: _124  and  _127
REMARK   57  A    between atoms: _127  and  _128
REMARK   58  A    between atoms: _131  and  _133
REMARK   59  A    between atoms: _133  and  _134
REMARK   60  A    between atoms: _133  and  _136
REMARK   61  A    between atoms: _136  and  _137
REMARK   62  A    between atoms: _142  and  _144
REMARK   63  A    between atoms: _144  and  _145
REMARK   64  A    between atoms: _144  and  _147
REMARK   65  A    between atoms: _147  and  _148
REMARK   66  A    between atoms: _151  and  _153
REMARK   67  A    between atoms: _153  and  _154
REMARK   68  A    between atoms: _153  and  _156
REMARK   69  A    between atoms: _156  and  _157
REMARK   70  A    between atoms: _160  and  _162
REMARK   71  A    between atoms: _162  and  _163
REMARK   72  A    between atoms: _162  and  _165
REMARK   73  A    between atoms: _165  and  _166
REMARK   74  A    between atoms: _166  and  _167
REMARK   75  A    between atoms: _170  and  _172
REMARK   76  A    between atoms: _172  and  _173
REMARK   77  A    between atoms: _172  and  _175
REMARK   78  A    between atoms: _175  and  _176
REMARK   79  A    between atoms: _176  and  _177
REMARK   80  A    between atoms: _179  and  _181
REMARK   81  A    between atoms: _181  and  _182
REMARK   82  A    between atoms: _181  and  _184
REMARK   83  A    between atoms: _184  and  _185
REMARK   84  A    between atoms: _187  and  _189
REMARK   85  A    between atoms: _189  and  _190
REMARK   86  A    between atoms: _189  and  _192
REMARK   87  A    between atoms: _192  and  _193
REMARK   88  A    between atoms: _198  and  _200
REMARK   89  A    between atoms: _200  and  _201
REMARK   90  A    between atoms: _204  and  _206
REMARK   91  A    between atoms: _206  and  _207
REMARK   92  A    between atoms: _206  and  _209
REMARK   93  A    between atoms: _209  and  _210
REMARK   94  A    between atoms: _213  and  _215
REMARK   95  A    between atoms: _215  and  _216
REMARK   96  A    between atoms: _215  and  _218
REMARK   97  A    between atoms: _221  and  _223
REMARK   98  A    between atoms: _223  and  _224
REMARK   99  A    between atoms: _227  and  _228
REMARK  100  A    between atoms: _233  and  _235
REMARK  101  A    between atoms: _235  and  _236
REMARK  102  A    between atoms: _235  and  _238
REMARK  103  A    between atoms: _238  and  _239
REMARK  104  A    between atoms: _241  and  _243
REMARK  105  A    between atoms: _243  and  _244
REMARK  106  A    between atoms: _243  and  _246
REMARK  107  A    between atoms: _246  and  _247
REMARK  108  A    between atoms: _250  and  _252
REMARK  109  A    between atoms: _252  and  _253
REMARK  110  A    between atoms: _252  and  _255
REMARK  111  A    between atoms: _255  and  _256
REMARK  112  A    between atoms: _256  and  _257
REMARK  113  A    between atoms: _257  and  _258
REMARK  114  A    between atoms: _267  and  _269
REMARK  115  A    between atoms: _269  and  _270
REMARK  116  A    between atoms: _269  and  _272
REMARK  117  A    between atoms: _272  and  _273
REMARK  118  A    between atoms: _276  and  _277
REMARK  119  A    between atoms: _282  and  _284
REMARK  120  A    between atoms: _284  and  _285
REMARK  121  A    between atoms: _287  and  _289
REMARK  122  A    between atoms: _289  and  _290
REMARK  123  A    between atoms: _289  and  _292
REMARK  124  A    between atoms: _295  and  _297
REMARK  125  A    between atoms: _297  and  _298
REMARK  126  A    between atoms: _300  and  _302
REMARK  127  A    between atoms: _302  and  _303
REMARK  128  A    between atoms: _306  and  _308
REMARK  129  A    between atoms: _308  and  _309
REMARK  130  A    between atoms: _308  and  _311
REMARK  131  A    between atoms: _311  and  _312
REMARK  132  A    between atoms: _312  and  _313
REMARK  133  A    between atoms: _318  and  _320
REMARK  134  A    between atoms: _320  and  _321
REMARK  135  A    between atoms: _323  and  _325
REMARK  136  A    between atoms: _325  and  _326
REMARK  137  A    between atoms: _328  and  _330
REMARK  138  A    between atoms: _330  and  _331
REMARK  139  A    between atoms: _330  and  _333
REMARK  140  A    between atoms: _333  and  _334
REMARK  141  A    between atoms: _337  and  _339
REMARK  142  A    between atoms: _339  and  _340
REMARK  143  A    between atoms: _339  and  _342
REMARK  144  A    between atoms: _345  and  _347
REMARK  145  A    between atoms: _347  and  _348
REMARK  146  A    between atoms: _350  and  _352
REMARK  147  A    between atoms: _352  and  _353
REMARK  148  A    between atoms: _352  and  _355
REMARK  149  A    between atoms: _355  and  _356
REMARK  150  A    between atoms: _356  and  _357
REMARK  151  A    between atoms: _357  and  _358
REMARK  152  A    between atoms: _367  and  _369
REMARK  153  A    between atoms: _369  and  _370
REMARK  154  A    between atoms: _369  and  _372
REMARK  155  A    between atoms: _372  and  _373
REMARK  156  A    between atoms: _375  and  _377
REMARK  157  A    between atoms: _377  and  _378
REMARK  158  A    between atoms: _377  and  _380
REMARK  159  A    between atoms: _380  and  _381
REMARK  160  A    between atoms: _384  and  _386
REMARK  161  A    between atoms: _386  and  _387
REMARK  162  A    between atoms: _386  and  _389
REMARK  163  A    between atoms: _389  and  _390
REMARK  164  A    between atoms: _395  and  _396
REMARK  165  A    between atoms: _398  and  _400
REMARK  166  A    between atoms: _400  and  _401
REMARK  167  A    between atoms: _400  and  _403
REMARK  168  A    between atoms: _403  and  _404
REMARK  169  A    between atoms: _407  and  _409
REMARK  170  A    between atoms: _409  and  _410
REMARK  171  A    between atoms: _413  and  _415
REMARK  172  A    between atoms: _415  and  _416
REMARK  173  A    between atoms: _415  and  _418
REMARK  174  A    between atoms: _418  and  _419
REMARK  175  A    between atoms: _422  and  _424
REMARK  176  A    between atoms: _424  and  _425
REMARK  177  A    between atoms: _424  and  _427
REMARK  178  A    between atoms: _427  and  _428
REMARK  179  A    between atoms: _432  and  _433
REMARK  180  A    between atoms: _438  and  _440
REMARK  181  A    between atoms: _440  and  _441
REMARK  182  A    between atoms: _440  and  _443
REMARK  183  A    between atoms: _443  and  _444
REMARK  184  A    between atoms: _444  and  _445
REMARK  185  A    between atoms: _448  and  _450
REMARK  186  A    between atoms: _450  and  _451
REMARK  187  A    between atoms: _450  and  _453
REMARK  188  A    between atoms: _453  and  _454
REMARK  189  A    between atoms: _457  and  _459
REMARK  190  A    between atoms: _459  and  _460
REMARK  191  A    between atoms: _459  and  _462
REMARK  192  A    between atoms: _462  and  _463
REMARK  193  A    between atoms: _468  and  _470
REMARK  194  A    between atoms: _470  and  _471
REMARK  195  A    between atoms: _470  and  _473
REMARK  196  A    between atoms: _473  and  _474
REMARK  197  A    between atoms: _474  and  _475
REMARK  198  A    between atoms: _475  and  _476
REMARK  199  A    between atoms: _476  and  _477
REMARK  200  A    between atoms: _481  and  _483
REMARK  201  A    between atoms: _483  and  _484
REMARK  202  A    between atoms: _483  and  _486
REMARK  203  A    between atoms: _486  and  _487
REMARK                            x       y       z     vdW  Elec       q    Type
REMARK                         _______ _______ _______ _____ _____    ______ ____
ROOT
ATOM      1  C   GLU A   3       8.413  42.253  33.787  0.00  0.00    +0.241 C 
ATOM      2  N   MET A   4       8.664  42.497  35.040  0.00  0.00    -0.297 N 
ATOM      3  H   MET A   4       8.028  43.152  35.539  0.00  0.00    +0.150 HD
ATOM      4  O   GLU A   3       9.103  41.482  33.123  0.00  0.00    -0.273 OA
ENDROOT
BRANCH   2   5
ATOM      5  CA  MET A   4       9.761  41.927  35.793  0.00  0.00    +0.149 C 
BRANCH   5   6
ATOM      6  C   MET A   4       9.313  40.587  36.454  0.00  0.00    +0.241 C 
ATOM      7  N   SER A   5      10.334  39.816  36.869  0.00  0.00    -0.295 N 
ATOM      8  H   SER A   5      11.300  40.202  36.877  0.00  0.00    +0.150 HD
ATOM      9  O   MET A   4       8.148  40.302  36.598  0.00  0.00    -0.273 OA
BRANCH   7  10
ATOM     10  CA  SER A   5      10.103  38.446  37.307  0.00  0.00    +0.178 C 
BRANCH  10  11
ATOM     11  C   SER A   5       9.874  38.274  38.787  0.00  0.00    +0.243 C 
ATOM     12  N   HIS A   6      10.187  39.252  39.619  0.00  0.00    -0.298 N 
ATOM     13  H   HIS A   6      10.501  40.163  39.227  0.00  0.00    +0.150 HD
ATOM     14  O   SER A   5       9.432  37.182  39.170  0.00  0.00    -0.273 OA
BRANCH  12  15
ATOM     15  CA  HIS A   6      10.108  39.099  41.059  0.00  0.00    +0.143 C 
BRANCH  15  16
ATOM     16  C   HIS A   6       8.699  39.376  41.580  0.00  0.00    +0.227 C 
ATOM     17  O   HIS A   6       7.881  39.982  40.911  0.00  0.00    -0.286 OA
ENDBRANCH  15  16
BRANCH  15  18
ATOM     18  CB  HIS A   6      11.137  40.002  41.735  0.00  0.00    +0.075 C 
BRANCH  18  19
ATOM     19  CG  HIS A   6      10.826  41.461  41.486  0.00  0.00    +0.082 A 
ATOM     20  CD2 HIS A   6      10.482  42.409  42.366  0.00  0.00    +0.115 A 
ATOM     21  NE2 HIS A   6      10.270  43.569  41.628  0.00  0.00    -0.221 NA
ATOM     22  CE1 HIS A   6      10.485  43.262  40.322  0.00  0.00    +0.199 A 
ATOM     23  ND1 HIS A   6      10.835  41.984  40.181  0.00  0.00    -0.227 NA
ENDBRANCH  18  19
ENDBRANCH  15  18
ENDBRANCH  12  15
ENDBRANCH  10  11
BRANCH  10  24
ATOM     24  CB  SER A   5      11.312  37.591  36.892  0.00  0.00    +0.166 C 
BRANCH  24  25
ATOM     25  OG  SER A   5      12.504  38.073  37.481  0.00  0.00    -0.380 OA
ATOM     26  H   SER A   5      12.419  38.044  38.467  0.00  0.00    +0.211 HD
ENDBRANCH  24  25
ENDBRANCH  10  24
ENDBRANCH   7  10
ENDBRANCH   5   6
BRANCH   5  27
ATOM     27  CB  MET A   4      10.278  42.875  36.832  0.00  0.00    +0.041 C 
BRANCH  27  28
ATOM     28  CG  MET A   4      11.024  44.040  36.234  0.00  0.00    +0.060 C 
BRANCH  28  29
ATOM     29  SD  MET A   4      11.659  45.182  37.456  0.00  0.00    -0.139 S 
ATOM     30  CE  MET A   4      13.024  44.236  38.115  0.00  0.00    +0.069 C 
ENDBRANCH  28  29
ENDBRANCH  27  28
ENDBRANCH   5  27
ENDBRANCH   2   5
BRANCH   1  31
ATOM     31  CA  GLU A   3       7.242  42.938  33.145  0.00  0.00    +0.149 C 
BRANCH  31  33
ATOM     32  C   THR A   2       7.423  44.643  31.331  0.00  0.00    +0.243 C 
ATOM     33  N   GLU A   3       7.708  43.476  31.872  0.00  0.00    -0.297 N 
ATOM     34  H   GLU A   3       8.344  42.863  31.323  0.00  0.00    +0.150 HD
ATOM     35  O   THR A   2       6.521  45.327  31.780  0.00  0.00    -0.273 OA
BRANCH  32  36
ATOM     36  CA  THR A   2       8.139  45.174  30.073  0.00  0.00    +0.176 C 
BRANCH  36  39
ATOM     37  C   LEU A   1      10.532  45.681  30.110  0.00  0.00    +0.238 C 
ATOM     38  O   LEU A   1      10.268  46.845  30.424  0.00  0.00    -0.274 OA
ATOM     39  N   THR A   2       9.534  44.779  29.995  0.00  0.00    -0.295 N 
ATOM     40  H   THR A   2       9.770  43.777  29.847  0.00  0.00    +0.150 HD
BRANCH  37  41
ATOM     41  CA  LEU A   1      11.944  45.239  29.836  0.00  0.00    +0.145 C 
BRANCH  41  42
ATOM     42  N   LEU A   1      12.442  45.996  28.691  0.00  0.00    -0.238 NA
ATOM     43  H   LEU A   1      13.009  46.849  28.870  0.00  0.00    +0.142 HD
ENDBRANCH  41  42
BRANCH  41  44
ATOM     44  CB  LEU A   1      12.857  45.485  31.023  0.00  0.00    +0.026 C 
BRANCH  44  45
ATOM     45  CG  LEU A   1      12.475  44.871  32.374  0.00  0.00    +0.002 C 
ATOM     46  CD2 LEU A   1      13.547  45.229  33.379  0.00  0.00    +0.000 C 
ATOM     47  CD1 LEU A   1      12.289  43.380  32.296  0.00  0.00    +0.000 C 
ENDBRANCH  44  45
ENDBRANCH  41  44
ENDBRANCH  37  41
ENDBRANCH  36  39
BRANCH  36  48
ATOM     48  CB  THR A   2       7.265  44.705  28.865  0.00  0.00    +0.137 C 
ATOM     49  CG2 THR A   2       7.798  45.214  27.548  0.00  0.00    +0.034 C 
BRANCH  48  50
ATOM     50  OG1 THR A   2       7.273  43.285  28.886  0.00  0.00    -0.382 OA
ATOM     51  HG1 THR A   2       6.892  42.967  29.743  0.00  0.00    +0.210 HD
ENDBRANCH  48  50
ENDBRANCH  36  48
ENDBRANCH  32  36
ENDBRANCH  31  33
BRANCH  31  52
ATOM     52  CB  GLU A   3       6.023  41.944  33.058  0.00  0.00    +0.041 C 
BRANCH  52  53
ATOM     53  CG  GLU A   3       5.546  41.513  34.474  0.00  0.00    +0.116 C 
BRANCH  53  54
ATOM     54  CD  GLU A   3       4.218  40.758  34.498  0.00  0.00    +0.365 C 
ATOM     55  OE2 GLU A   3       3.975  40.018  35.453  0.00  0.00    -0.246 OA
ATOM     56  OE1 GLU A   3       3.435  40.972  33.559  0.00  0.00    -0.246 OA
ENDBRANCH  53  54
ENDBRANCH  52  53
ENDBRANCH  31  52
ENDBRANCH   1  31
TORSDOF 26
REMARK  Name = ../refined-set-2016/3w07/3w07_pocket.pdb
REMARK  203 active torsions:
REMARK  status: ('A' for Active; 'I' for Inactive)
REMARK    1  A    between atoms: _1  and  _3
REMARK    2  A    between atoms: _3  and  _4
REMARK    3  A    between atoms: _3  and  _6
REMARK    4  A    between atoms: _6  and  _7
REMARK    5  A    between atoms: _10  and  _12
REMARK    6  A    between atoms: _12  and  _13
REMARK    7  A    between atoms: _12  and  _15
REMARK    8  A    between atoms: _15  and  _16
REMARK    9  A    between atoms: _19  and  _21
REMARK   10  A    between atoms: _21  and  _22
REMARK   11  A    between atoms: _25  and  _27
REMARK   12  A    between atoms: _27  and  _28
REMARK   13  A    between atoms: _27  and  _30
REMARK   14  A    between atoms: _30  and  _31
REMARK   15  A    between atoms: _31  and  _32
REMARK   16  A    between atoms: _34  and  _36
REMARK   17  A    between atoms: _36  and  _37
REMARK   18  A    between atoms: _36  and  _39
REMARK   19  A    between atoms: _39  and  _40
REMARK   20  A    between atoms: _43  and  _45
REMARK   21  A    between atoms: _45  and  _46
REMARK   22  A    between atoms: _45  and  _48
REMARK   23  A    between atoms: _48  and  _49
REMARK   24  A    between atoms: _49  and  _50
REMARK   25  A    between atoms: _50  and  _51
REMARK   26  A    between atoms: _51  and  _52
REMARK   27  A    between atoms: _56  and  _58
REMARK   28  A    between atoms: _58  and  _59
REMARK   29  A    between atoms: _58  and  _61
REMARK   30  A    between atoms: _61  and  _62
REMARK   31  A    between atoms: _65  and  _67
REMARK   32  A    between atoms: _67  and  _68
REMARK   33  A    between atoms: _70  and  _72
REMARK   34  A    between atoms: _72  and  _73
REMARK   35  A    between atoms: _72  and  _75
REMARK   36  A    between atoms: _75  and  _76
REMARK   37  A    between atoms: _81  and  _82
REMARK   38  A    between atoms: _85  and  _86
REMARK   39  A    between atoms: _91  and  _93
REMARK   40  A    between atoms: _93  and  _94
REMARK   41  A    between atoms: _93  and  _96
REMARK   42  A    between atoms: _96  and  _97
REMARK   43  A    between atoms: _100  and  _102
REMARK   44  A    between atoms: _102  and  _103
REMARK   45  A    between atoms: _102  and  _105
REMARK   46  A    between atoms: _105  and  _106
REMARK   47  A    between atoms: _109  and  _111
REMARK   48  A    between atoms: _111  and  _112
REMARK   49  A    between atoms: _111  and  _114
REMARK   50  A    between atoms: _114  and  _115
REMARK   51  A    between atoms: _115  and  _116
REMARK   52  A    between atoms: _116  and  _117
REMARK   53  A    between atoms: _117  and  _118
REMARK   54  A    between atoms: _122  and  _124
REMARK   55  A    between atoms: _124  and  _125
REMARK   56  A    between atoms: _124  and  _127
REMARK   57  A    between atoms: _127  and  _128
REMARK   58  A    between atoms: _131  and  _133
REMARK   59  A    between atoms: _133  and  _134
REMARK   60  A    between atoms: _133  and  _136
REMARK   61  A    between atoms: _136  and  _137
REMARK   62  A    between atoms: _142  and  _144
REMARK   63  A    between atoms: _144  and  _145
REMARK   64  A    between atoms: _144  and  _147
REMARK   65  A    between atoms: _147  and  _148
REMARK   66  A    between atoms: _151  and  _153
REMARK   67  A    between atoms: _153  and  _154
REMARK   68  A    between atoms: _153  and  _156
REMARK   69  A    between atoms: _156  and  _157
REMARK   70  A    between atoms: _160  and  _162
REMARK   71  A    between atoms: _162  and  _163
REMARK   72  A    between atoms: _162  and  _165
REMARK   73  A    between atoms: _165  and  _166
REMARK   74  A    between atoms: _166  and  _167
REMARK   75  A    between atoms: _170  and  _172
REMARK   76  A    between atoms: _172  and  _173
REMARK   77  A    between atoms: _172  and  _175
REMARK   78  A    between atoms: _175  and  _176
REMARK   79  A    between atoms: _176  and  _177
REMARK   80  A    between atoms: _179  and  _181
REMARK   81  A    between atoms: _181  and  _182
REMARK   82  A    between atoms: _181  and  _184
REMARK   83  A    between atoms: _184  and  _185
REMARK   84  A    between atoms: _187  and  _189
REMARK   85  A    between atoms: _189  and  _190
REMARK   86  A    between atoms: _189  and  _192
REMARK   87  A    between atoms: _192  and  _193
REMARK   88  A    between atoms: _198  and  _200
REMARK   89  A    between atoms: _200  and  _201
REMARK   90  A    between atoms: _204  and  _206
REMARK   91  A    between atoms: _206  and  _207
REMARK   92  A    between atoms: _206  and  _209
REMARK   93  A    between atoms: _209  and  _210
REMARK   94  A    between atoms: _213  and  _215
REMARK   95  A    between atoms: _215  and  _216
REMARK   96  A    between atoms: _215  and  _218
REMARK   97  A    between atoms: _221  and  _223
REMARK   98  A    between atoms: _223  and  _224
REMARK   99  A    between atoms: _227  and  _228
REMARK  100  A    between atoms: _233  and  _235
REMARK  101  A    between atoms: _235  and  _236
REMARK  102  A    between atoms: _235  and  _238
REMARK  103  A    between atoms: _238  and  _239
REMARK  104  A    between atoms: _241  and  _243
REMARK  105  A    between atoms: _243  and  _244
REMARK  106  A    between atoms: _243  and  _246
REMARK  107  A    between atoms: _246  and  _247
REMARK  108  A    between atoms: _250  and  _252
REMARK  109  A    between atoms: _252  and  _253
REMARK  110  A    between atoms: _252  and  _255
REMARK  111  A    between atoms: _255  and  _256
REMARK  112  A    between atoms: _256  and  _257
REMARK  113  A    between atoms: _257  and  _258
REMARK  114  A    between atoms: _267  and  _269
REMARK  115  A    between atoms: _269  and  _270
REMARK  116  A    between atoms: _269  and  _272
REMARK  117  A    between atoms: _272  and  _273
REMARK  118  A    between atoms: _276  and  _277
REMARK  119  A    between atoms: _282  and  _284
REMARK  120  A    between atoms: _284  and  _285
REMARK  121  A    between atoms: _287  and  _289
REMARK  122  A    between atoms: _289  and  _290
REMARK  123  A    between atoms: _289  and  _292
REMARK  124  A    between atoms: _295  and  _297
REMARK  125  A    between atoms: _297  and  _298
REMARK  126  A    between atoms: _300  and  _302
REMARK  127  A    between atoms: _302  and  _303
REMARK  128  A    between atoms: _306  and  _308
REMARK  129  A    between atoms: _308  and  _309
REMARK  130  A    between atoms: _308  and  _311
REMARK  131  A    between atoms: _311  and  _312
REMARK  132  A    between atoms: _312  and  _313
REMARK  133  A    between atoms: _318  and  _320
REMARK  134  A    between atoms: _320  and  _321
REMARK  135  A    between atoms: _323  and  _325
REMARK  136  A    between atoms: _325  and  _326
REMARK  137  A    between atoms: _328  and  _330
REMARK  138  A    between atoms: _330  and  _331
REMARK  139  A    between atoms: _330  and  _333
REMARK  140  A    between atoms: _333  and  _334
REMARK  141  A    between atoms: _337  and  _339
REMARK  142  A    between atoms: _339  and  _340
REMARK  143  A    between atoms: _339  and  _342
REMARK  144  A    between atoms: _345  and  _347
REMARK  145  A    between atoms: _347  and  _348
REMARK  146  A    between atoms: _350  and  _352
REMARK  147  A    between atoms: _352  and  _353
REMARK  148  A    between atoms: _352  and  _355
REMARK  149  A    between atoms: _355  and  _356
REMARK  150  A    between atoms: _356  and  _357
REMARK  151  A    between atoms: _357  and  _358
REMARK  152  A    between atoms: _367  and  _369
REMARK  153  A    between atoms: _369  and  _370
REMARK  154  A    between atoms: _369  and  _372
REMARK  155  A    between atoms: _372  and  _373
REMARK  156  A    between atoms: _375  and  _377
REMARK  157  A    between atoms: _377  and  _378
REMARK  158  A    between atoms: _377  and  _380
REMARK  159  A    between atoms: _380  and  _381
REMARK  160  A    between atoms: _384  and  _386
REMARK  161  A    between atoms: _386  and  _387
REMARK  162  A    between atoms: _386  and  _389
REMARK  163  A    between atoms: _389  and  _390
REMARK  164  A    between atoms: _395  and  _396
REMARK  165  A    between atoms: _398  and  _400
REMARK  166  A    between atoms: _400  and  _401
REMARK  167  A    between atoms: _400  and  _403
REMARK  168  A    between atoms: _403  and  _404
REMARK  169  A    between atoms: _407  and  _409
REMARK  170  A    between atoms: _409  and  _410
REMARK  171  A    between atoms: _413  and  _415
REMARK  172  A    between atoms: _415  and  _416
REMARK  173  A    between atoms: _415  and  _418
REMARK  174  A    between atoms: _418  and  _419
REMARK  175  A    between atoms: _422  and  _424
REMARK  176  A    between atoms: _424  and  _425
REMARK  177  A    between atoms: _424  and  _427
REMARK  178  A    between atoms: _427  and  _428
REMARK  179  A    between atoms: _432  and  _433
REMARK  180  A    between atoms: _438  and  _440
REMARK  181  A    between atoms: _440  and  _441
REMARK  182  A    between atoms: _440  and  _443
REMARK  183  A    between atoms: _443  and  _444
REMARK  184  A    between atoms: _444  and  _445
REMARK  185  A    between atoms: _448  and  _450
REMARK  186  A    between atoms: _450  and  _451
REMARK  187  A    between atoms: _450  and  _453
REMARK  188  A    between atoms: _453  and  _454
REMARK  189  A    between atoms: _457  and  _459
REMARK  190  A    between atoms: _459  and  _460
REMARK  191  A    between atoms: _459  and  _462
REMARK  192  A    between atoms: _462  and  _463
REMARK  193  A    between atoms: _468  and  _470
REMARK  194  A    between atoms: _470  and  _471
REMARK  195  A    between atoms: _470  and  _473
REMARK  196  A    between atoms: _473  and  _474
REMARK  197  A    between atoms: _474  and  _475
REMARK  198  A    between atoms: _475  and  _476
REMARK  199  A    between atoms: _476  and  _477
REMARK  200  A    between atoms: _481  and  _483
REMARK  201  A    between atoms: _483  and  _484
REMARK  202  A    between atoms: _483  and  _486
REMARK  203  A    between atoms: _486  and  _487
REMARK                            x       y       z     vdW  Elec       q    Type
REMARK                         _______ _______ _______ _____ _____    ______ ____
ROOT
ATOM      1  CA  ALA A   1       6.471  43.266  39.989  0.00  0.00    +0.133 C 
ATOM      2  CB  ALA A   1       7.052  42.377  38.886  0.00  0.00    +0.027 C 
ENDROOT
BRANCH   1   3
ATOM      3  N   ALA A   1       6.912  42.815  41.284  0.00  0.00    -0.239 NA
ATOM      4  H   ALA A   1       7.521  41.974  41.345  0.00  0.00    +0.142 HD
ENDBRANCH   1   3
BRANCH   1   5
ATOM      5  C   ALA A   1       4.958  43.289  39.889  0.00  0.00    +0.224 C 
ATOM      6  O   ALA A   1       4.382  43.964  39.029  0.00  0.00    -0.287 OA
ENDBRANCH   1   5
TORSDOF 2
REMARK  Name = ../refined-set-2016/3w07/3w07_pocket.pdb
REMARK  203 active torsions:
REMARK  status: ('A' for Active; 'I' for Inactive)
REMARK    1  A    between atoms: _1  and  _3
REMARK    2  A    between atoms: _3  and  _4
REMARK    3  A    between atoms: _3  and  _6
REMARK    4  A    between atoms: _6  and  _7
REMARK    5  A    between atoms: _10  and  _12
REMARK    6  A    between atoms: _12  and  _13
REMARK    7  A    between atoms: _12  and  _15
REMARK    8  A    between atoms: _15  and  _16
REMARK    9  A    between atoms: _19  and  _21
REMARK   10  A    between atoms: _21  and  _22
REMARK   11  A    between atoms: _25  and  _27
REMARK   12  A    between atoms: _27  and  _28
REMARK   13  A    between atoms: _27  and  _30
REMARK   14  A    between atoms: _30  and  _31
REMARK   15  A    between atoms: _31  and  _32
REMARK   16  A    between atoms: _34  and  _36
REMARK   17  A    between atoms: _36  and  _37
REMARK   18  A    between atoms: _36  and  _39
REMARK   19  A    between atoms: _39  and  _40
REMARK   20  A    between atoms: _43  and  _45
REMARK   21  A    between atoms: _45  and  _46
REMARK   22  A    between atoms: _45  and  _48
REMARK   23  A    between atoms: _48  and  _49
REMARK   24  A    between atoms: _49  and  _50
REMARK   25  A    between atoms: _50  and  _51
REMARK   26  A    between atoms: _51  and  _52
REMARK   27  A    between atoms: _56  and  _58
REMARK   28  A    between atoms: _58  and  _59
REMARK   29  A    between atoms: _58  and  _61
REMARK   30  A    between atoms: _61  and  _62
REMARK   31  A    between atoms: _65  and  _67
REMARK   32  A    between atoms: _67  and  _68
REMARK   33  A    between atoms: _70  and  _72
REMARK   34  A    between atoms: _72  and  _73
REMARK   35  A    between atoms: _72  and  _75
REMARK   36  A    between atoms: _75  and  _76
REMARK   37  A    between atoms: _81  and  _82
REMARK   38  A    between atoms: _85  and  _86
REMARK   39  A    between atoms: _91  and  _93
REMARK   40  A    between atoms: _93  and  _94
REMARK   41  A    between atoms: _93  and  _96
REMARK   42  A    between atoms: _96  and  _97
REMARK   43  A    between atoms: _100  and  _102
REMARK   44  A    between atoms: _102  and  _103
REMARK   45  A    between atoms: _102  and  _105
REMARK   46  A    between atoms: _105  and  _106
REMARK   47  A    between atoms: _109  and  _111
REMARK   48  A    between atoms: _111  and  _112
REMARK   49  A    between atoms: _111  and  _114
REMARK   50  A    between atoms: _114  and  _115
REMARK   51  A    between atoms: _115  and  _116
REMARK   52  A    between atoms: _116  and  _117
REMARK   53  A    between atoms: _117  and  _118
REMARK   54  A    between atoms: _122  and  _124
REMARK   55  A    between atoms: _124  and  _125
REMARK   56  A    between atoms: _124  and  _127
REMARK   57  A    between atoms: _127  and  _128
REMARK   58  A    between atoms: _131  and  _133
REMARK   59  A    between atoms: _133  and  _134
REMARK   60  A    between atoms: _133  and  _136
REMARK   61  A    between atoms: _136  and  _137
REMARK   62  A    between atoms: _142  and  _144
REMARK   63  A    between atoms: _144  and  _145
REMARK   64  A    between atoms: _144  and  _147
REMARK   65  A    between atoms: _147  and  _148
REMARK   66  A    between atoms: _151  and  _153
REMARK   67  A    between atoms: _153  and  _154
REMARK   68  A    between atoms: _153  and  _156
REMARK   69  A    between atoms: _156  and  _157
REMARK   70  A    between atoms: _160  and  _162
REMARK   71  A    between atoms: _162  and  _163
REMARK   72  A    between atoms: _162  and  _165
REMARK   73  A    between atoms: _165  and  _166
REMARK   74  A    between atoms: _166  and  _167
REMARK   75  A    between atoms: _170  and  _172
REMARK   76  A    between atoms: _172  and  _173
REMARK   77  A    between atoms: _172  and  _175
REMARK   78  A    between atoms: _175  and  _176
REMARK   79  A    between atoms: _176  and  _177
REMARK   80  A    between atoms: _179  and  _181
REMARK   81  A    between atoms: _181  and  _182
REMARK   82  A    between atoms: _181  and  _184
REMARK   83  A    between atoms: _184  and  _185
REMARK   84  A    between atoms: _187  and  _189
REMARK   85  A    between atoms: _189  and  _190
REMARK   86  A    between atoms: _189  and  _192
REMARK   87  A    between atoms: _192  and  _193
REMARK   88  A    between atoms: _198  and  _200
REMARK   89  A    between atoms: _200  and  _201
REMARK   90  A    between atoms: _204  and  _206
REMARK   91  A    between atoms: _206  and  _207
REMARK   92  A    between atoms: _206  and  _209
REMARK   93  A    between atoms: _209  and  _210
REMARK   94  A    between atoms: _213  and  _215
REMARK   95  A    between atoms: _215  and  _216
REMARK   96  A    between atoms: _215  and  _218
REMARK   97  A    between atoms: _221  and  _223
REMARK   98  A    between atoms: _223  and  _224
REMARK   99  A    between atoms: _227  and  _228
REMARK  100  A    between atoms: _233  and  _235
REMARK  101  A    between atoms: _235  and  _236
REMARK  102  A    between atoms: _235  and  _238
REMARK  103  A    between atoms: _238  and  _239
REMARK  104  A    between atoms: _241  and  _243
REMARK  105  A    between atoms: _243  and  _244
REMARK  106  A    between atoms: _243  and  _246
REMARK  107  A    between atoms: _246  and  _247
REMARK  108  A    between atoms: _250  and  _252
REMARK  109  A    between atoms: _252  and  _253
REMARK  110  A    between atoms: _252  and  _255
REMARK  111  A    between atoms: _255  and  _256
REMARK  112  A    between atoms: _256  and  _257
REMARK  113  A    between atoms: _257  and  _258
REMARK  114  A    between atoms: _267  and  _269
REMARK  115  A    between atoms: _269  and  _270
REMARK  116  A    between atoms: _269  and  _272
REMARK  117  A    between atoms: _272  and  _273
REMARK  118  A    between atoms: _276  and  _277
REMARK  119  A    between atoms: _282  and  _284
REMARK  120  A    between atoms: _284  and  _285
REMARK  121  A    between atoms: _287  and  _289
REMARK  122  A    between atoms: _289  and  _290
REMARK  123  A    between atoms: _289  and  _292
REMARK  124  A    between atoms: _295  and  _297
REMARK  125  A    between atoms: _297  and  _298
REMARK  126  A    between atoms: _300  and  _302
REMARK  127  A    between atoms: _302  and  _303
REMARK  128  A    between atoms: _306  and  _308
REMARK  129  A    between atoms: _308  and  _309
REMARK  130  A    between atoms: _308  and  _311
REMARK  131  A    between atoms: _311  and  _312
REMARK  132  A    between atoms: _312  and  _313
REMARK  133  A    between atoms: _318  and  _320
REMARK  134  A    between atoms: _320  and  _321
REMARK  135  A    between atoms: _323  and  _325
REMARK  136  A    between atoms: _325  and  _326
REMARK  137  A    between atoms: _328  and  _330
REMARK  138  A    between atoms: _330  and  _331
REMARK  139  A    between atoms: _330  and  _333
REMARK  140  A    between atoms: _333  and  _334
REMARK  141  A    between atoms: _337  and  _339
REMARK  142  A    between atoms: _339  and  _340
REMARK  143  A    between atoms: _339  and  _342
REMARK  144  A    between atoms: _345  and  _347
REMARK  145  A    between atoms: _347  and  _348
REMARK  146  A    between atoms: _350  and  _352
REMARK  147  A    between atoms: _352  and  _353
REMARK  148  A    between atoms: _352  and  _355
REMARK  149  A    between atoms: _355  and  _356
REMARK  150  A    between atoms: _356  and  _357
REMARK  151  A    between atoms: _357  and  _358
REMARK  152  A    between atoms: _367  and  _369
REMARK  153  A    between atoms: _369  and  _370
REMARK  154  A    between atoms: _369  and  _372
REMARK  155  A    between atoms: _372  and  _373
REMARK  156  A    between atoms: _375  and  _377
REMARK  157  A    between atoms: _377  and  _378
REMARK  158  A    between atoms: _377  and  _380
REMARK  159  A    between atoms: _380  and  _381
REMARK  160  A    between atoms: _384  and  _386
REMARK  161  A    between atoms: _386  and  _387
REMARK  162  A    between atoms: _386  and  _389
REMARK  163  A    between atoms: _389  and  _390
REMARK  164  A    between atoms: _395  and  _396
REMARK  165  A    between atoms: _398  and  _400
REMARK  166  A    between atoms: _400  and  _401
REMARK  167  A    between atoms: _400  and  _403
REMARK  168  A    between atoms: _403  and  _404
REMARK  169  A    between atoms: _407  and  _409
REMARK  170  A    between atoms: _409  and  _410
REMARK  171  A    between atoms: _413  and  _415
REMARK  172  A    between atoms: _415  and  _416
REMARK  173  A    between atoms: _415  and  _418
REMARK  174  A    between atoms: _418  and  _419
REMARK  175  A    between atoms: _422  and  _424
REMARK  176  A    between atoms: _424  and  _425
REMARK  177  A    between atoms: _424  and  _427
REMARK  178  A    between atoms: _427  and  _428
REMARK  179  A    between atoms: _432  and  _433
REMARK  180  A    between atoms: _438  and  _440
REMARK  181  A    between atoms: _440  and  _441
REMARK  182  A    between atoms: _440  and  _443
REMARK  183  A    between atoms: _443  and  _444
REMARK  184  A    between atoms: _444  and  _445
REMARK  185  A    between atoms: _448  and  _450
REMARK  186  A    between atoms: _450  and  _451
REMARK  187  A    between atoms: _450  and  _453
REMARK  188  A    between atoms: _453  and  _454
REMARK  189  A    between atoms: _457  and  _459
REMARK  190  A    between atoms: _459  and  _460
REMARK  191  A    between atoms: _459  and  _462
REMARK  192  A    between atoms: _462  and  _463
REMARK  193  A    between atoms: _468  and  _470
REMARK  194  A    between atoms: _470  and  _471
REMARK  195  A    between atoms: _470  and  _473
REMARK  196  A    between atoms: _473  and  _474
REMARK  197  A    between atoms: _474  and  _475
REMARK  198  A    between atoms: _475  and  _476
REMARK  199  A    between atoms: _476  and  _477
REMARK  200  A    between atoms: _481  and  _483
REMARK  201  A    between atoms: _483  and  _484
REMARK  202  A    between atoms: _483  and  _486
REMARK  203  A    between atoms: _486  and  _487
REMARK                            x       y       z     vdW  Elec       q    Type
REMARK                         _______ _______ _______ _____ _____    ______ ____
ROOT
ATOM      1  CA  ILE A   1       4.568  46.896  36.770  0.00  0.00    +0.133 C 
ENDROOT
BRANCH   1   2
ATOM      2  N   ILE A   1       4.125  47.151  38.155  0.00  0.00    -0.239 NA
ATOM      3  H   ILE A   1       4.634  46.727  38.957  0.00  0.00    +0.142 HD
ENDBRANCH   1   2
BRANCH   1   4
ATOM      4  CB  ILE A   1       5.963  46.290  36.724  0.00  0.00    +0.023 C 
ATOM      5  CG2 ILE A   1       6.278  45.791  35.312  0.00  0.00    +0.002 C 
BRANCH   4   6
ATOM      6  CG1 ILE A   1       7.000  47.239  37.235  0.00  0.00    +0.002 C 
ATOM      7  CD1 ILE A   1       8.377  46.584  37.456  0.00  0.00    +0.000 C 
ENDBRANCH   4   6
ENDBRANCH   1   4
BRANCH   1   8
ATOM      8  C   ILE A   1       3.553  46.050  36.027  0.00  0.00    +0.224 C 
ATOM      9  O   ILE A   1       3.255  46.320  34.852  0.00  0.00    -0.287 OA
ENDBRANCH   1   8
TORSDOF 4
REMARK  Name = ../refined-set-2016/3w07/3w07_pocket.pdb
REMARK  203 active torsions:
REMARK  status: ('A' for Active; 'I' for Inactive)
REMARK    1  A    between atoms: _1  and  _3
REMARK    2  A    between atoms: _3  and  _4
REMARK    3  A    between atoms: _3  and  _6
REMARK    4  A    between atoms: _6  and  _7
REMARK    5  A    between atoms: _10  and  _12
REMARK    6  A    between atoms: _12  and  _13
REMARK    7  A    between atoms: _12  and  _15
REMARK    8  A    between atoms: _15  and  _16
REMARK    9  A    between atoms: _19  and  _21
REMARK   10  A    between atoms: _21  and  _22
REMARK   11  A    between atoms: _25  and  _27
REMARK   12  A    between atoms: _27  and  _28
REMARK   13  A    between atoms: _27  and  _30
REMARK   14  A    between atoms: _30  and  _31
REMARK   15  A    between atoms: _31  and  _32
REMARK   16  A    between atoms: _34  and  _36
REMARK   17  A    between atoms: _36  and  _37
REMARK   18  A    between atoms: _36  and  _39
REMARK   19  A    between atoms: _39  and  _40
REMARK   20  A    between atoms: _43  and  _45
REMARK   21  A    between atoms: _45  and  _46
REMARK   22  A    between atoms: _45  and  _48
REMARK   23  A    between atoms: _48  and  _49
REMARK   24  A    between atoms: _49  and  _50
REMARK   25  A    between atoms: _50  and  _51
REMARK   26  A    between atoms: _51  and  _52
REMARK   27  A    between atoms: _56  and  _58
REMARK   28  A    between atoms: _58  and  _59
REMARK   29  A    between atoms: _58  and  _61
REMARK   30  A    between atoms: _61  and  _62
REMARK   31  A    between atoms: _65  and  _67
REMARK   32  A    between atoms: _67  and  _68
REMARK   33  A    between atoms: _70  and  _72
REMARK   34  A    between atoms: _72  and  _73
REMARK   35  A    between atoms: _72  and  _75
REMARK   36  A    between atoms: _75  and  _76
REMARK   37  A    between atoms: _81  and  _82
REMARK   38  A    between atoms: _85  and  _86
REMARK   39  A    between atoms: _91  and  _93
REMARK   40  A    between atoms: _93  and  _94
REMARK   41  A    between atoms: _93  and  _96
REMARK   42  A    between atoms: _96  and  _97
REMARK   43  A    between atoms: _100  and  _102
REMARK   44  A    between atoms: _102  and  _103
REMARK   45  A    between atoms: _102  and  _105
REMARK   46  A    between atoms: _105  and  _106
REMARK   47  A    between atoms: _109  and  _111
REMARK   48  A    between atoms: _111  and  _112
REMARK   49  A    between atoms: _111  and  _114
REMARK   50  A    between atoms: _114  and  _115
REMARK   51  A    between atoms: _115  and  _116
REMARK   52  A    between atoms: _116  and  _117
REMARK   53  A    between atoms: _117  and  _118
REMARK   54  A    between atoms: _122  and  _124
REMARK   55  A    between atoms: _124  and  _125
REMARK   56  A    between atoms: _124  and  _127
REMARK   57  A    between atoms: _127  and  _128
REMARK   58  A    between atoms: _131  and  _133
REMARK   59  A    between atoms: _133  and  _134
REMARK   60  A    between atoms: _133  and  _136
REMARK   61  A    between atoms: _136  and  _137
REMARK   62  A    between atoms: _142  and  _144
REMARK   63  A    between atoms: _144  and  _145
REMARK   64  A    between atoms: _144  and  _147
REMARK   65  A    between atoms: _147  and  _148
REMARK   66  A    between atoms: _151  and  _153
REMARK   67  A    between atoms: _153  and  _154
REMARK   68  A    between atoms: _153  and  _156
REMARK   69  A    between atoms: _156  and  _157
REMARK   70  A    between atoms: _160  and  _162
REMARK   71  A    between atoms: _162  and  _163
REMARK   72  A    between atoms: _162  and  _165
REMARK   73  A    between atoms: _165  and  _166
REMARK   74  A    between atoms: _166  and  _167
REMARK   75  A    between atoms: _170  and  _172
REMARK   76  A    between atoms: _172  and  _173
REMARK   77  A    between atoms: _172  and  _175
REMARK   78  A    between atoms: _175  and  _176
REMARK   79  A    between atoms: _176  and  _177
REMARK   80  A    between atoms: _179  and  _181
REMARK   81  A    between atoms: _181  and  _182
REMARK   82  A    between atoms: _181  and  _184
REMARK   83  A    between atoms: _184  and  _185
REMARK   84  A    between atoms: _187  and  _189
REMARK   85  A    between atoms: _189  and  _190
REMARK   86  A    between atoms: _189  and  _192
REMARK   87  A    between atoms: _192  and  _193
REMARK   88  A    between atoms: _198  and  _200
REMARK   89  A    between atoms: _200  and  _201
REMARK   90  A    between atoms: _204  and  _206
REMARK   91  A    between atoms: _206  and  _207
REMARK   92  A    between atoms: _206  and  _209
REMARK   93  A    between atoms: _209  and  _210
REMARK   94  A    between atoms: _213  and  _215
REMARK   95  A    between atoms: _215  and  _216
REMARK   96  A    between atoms: _215  and  _218
REMARK   97  A    between atoms: _221  and  _223
REMARK   98  A    between atoms: _223  and  _224
REMARK   99  A    between atoms: _227  and  _228
REMARK  100  A    between atoms: _233  and  _235
REMARK  101  A    between atoms: _235  and  _236
REMARK  102  A    between atoms: _235  and  _238
REMARK  103  A    between atoms: _238  and  _239
REMARK  104  A    between atoms: _241  and  _243
REMARK  105  A    between atoms: _243  and  _244
REMARK  106  A    between atoms: _243  and  _246
REMARK  107  A    between atoms: _246  and  _247
REMARK  108  A    between atoms: _250  and  _252
REMARK  109  A    between atoms: _252  and  _253
REMARK  110  A    between atoms: _252  and  _255
REMARK  111  A    between atoms: _255  and  _256
REMARK  112  A    between atoms: _256  and  _257
REMARK  113  A    between atoms: _257  and  _258
REMARK  114  A    between atoms: _267  and  _269
REMARK  115  A    between atoms: _269  and  _270
REMARK  116  A    between atoms: _269  and  _272
REMARK  117  A    between atoms: _272  and  _273
REMARK  118  A    between atoms: _276  and  _277
REMARK  119  A    between atoms: _282  and  _284
REMARK  120  A    between atoms: _284  and  _285
REMARK  121  A    between atoms: _287  and  _289
REMARK  122  A    between atoms: _289  and  _290
REMARK  123  A    between atoms: _289  and  _292
REMARK  124  A    between atoms: _295  and  _297
REMARK  125  A    between atoms: _297  and  _298
REMARK  126  A    between atoms: _300  and  _302
REMARK  127  A    between atoms: _302  and  _303
REMARK  128  A    between atoms: _306  and  _308
REMARK  129  A    between atoms: _308  and  _309
REMARK  130  A    between atoms: _308  and  _311
REMARK  131  A    between atoms: _311  and  _312
REMARK  132  A    between atoms: _312  and  _313
REMARK  133  A    between atoms: _318  and  _320
REMARK  134  A    between atoms: _320  and  _321
REMARK  135  A    between atoms: _323  and  _325
REMARK  136  A    between atoms: _325  and  _326
REMARK  137  A    between atoms: _328  and  _330
REMARK  138  A    between atoms: _330  and  _331
REMARK  139  A    between atoms: _330  and  _333
REMARK  140  A    between atoms: _333  and  _334
REMARK  141  A    between atoms: _337  and  _339
REMARK  142  A    between atoms: _339  and  _340
REMARK  143  A    between atoms: _339  and  _342
REMARK  144  A    between atoms: _345  and  _347
REMARK  145  A    between atoms: _347  and  _348
REMARK  146  A    between atoms: _350  and  _352
REMARK  147  A    between atoms: _352  and  _353
REMARK  148  A    between atoms: _352  and  _355
REMARK  149  A    between atoms: _355  and  _356
REMARK  150  A    between atoms: _356  and  _357
REMARK  151  A    between atoms: _357  and  _358
REMARK  152  A    between atoms: _367  and  _369
REMARK  153  A    between atoms: _369  and  _370
REMARK  154  A    between atoms: _369  and  _372
REMARK  155  A    between atoms: _372  and  _373
REMARK  156  A    between atoms: _375  and  _377
REMARK  157  A    between atoms: _377  and  _378
REMARK  158  A    between atoms: _377  and  _380
REMARK  159  A    between atoms: _380  and  _381
REMARK  160  A    between atoms: _384  and  _386
REMARK  161  A    between atoms: _386  and  _387
REMARK  162  A    between atoms: _386  and  _389
REMARK  163  A    between atoms: _389  and  _390
REMARK  164  A    between atoms: _395  and  _396
REMARK  165  A    between atoms: _398  and  _400
REMARK  166  A    between atoms: _400  and  _401
REMARK  167  A    between atoms: _400  and  _403
REMARK  168  A    between atoms: _403  and  _404
REMARK  169  A    between atoms: _407  and  _409
REMARK  170  A    between atoms: _409  and  _410
REMARK  171  A    between atoms: _413  and  _415
REMARK  172  A    between atoms: _415  and  _416
REMARK  173  A    between atoms: _415  and  _418
REMARK  174  A    between atoms: _418  and  _419
REMARK  175  A    between atoms: _422  and  _424
REMARK  176  A    between atoms: _424  and  _425
REMARK  177  A    between atoms: _424  and  _427
REMARK  178  A    between atoms: _427  and  _428
REMARK  179  A    between atoms: _432  and  _433
REMARK  180  A    between atoms: _438  and  _440
REMARK  181  A    between atoms: _440  and  _441
REMARK  182  A    between atoms: _440  and  _443
REMARK  183  A    between atoms: _443  and  _444
REMARK  184  A    between atoms: _444  and  _445
REMARK  185  A    between atoms: _448  and  _450
REMARK  186  A    between atoms: _450  and  _451
REMARK  187  A    between atoms: _450  and  _453
REMARK  188  A    between atoms: _453  and  _454
REMARK  189  A    between atoms: _457  and  _459
REMARK  190  A    between atoms: _459  and  _460
REMARK  191  A    between atoms: _459  and  _462
REMARK  192  A    between atoms: _462  and  _463
REMARK  193  A    between atoms: _468  and  _470
REMARK  194  A    between atoms: _470  and  _471
REMARK  195  A    between atoms: _470  and  _473
REMARK  196  A    between atoms: _473  and  _474
REMARK  197  A    between atoms: _474  and  _475
REMARK  198  A    between atoms: _475  and  _476
REMARK  199  A    between atoms: _476  and  _477
REMARK  200  A    between atoms: _481  and  _483
REMARK  201  A    between atoms: _483  and  _484
REMARK  202  A    between atoms: _483  and  _486
REMARK  203  A    between atoms: _486  and  _487
REMARK                            x       y       z     vdW  Elec       q    Type
REMARK                         _______ _______ _______ _____ _____    ______ ____
ROOT
ATOM      1  C   SER A   4       9.056  32.736  34.381  0.00  0.00    +0.243 C 
ATOM      2  N   THR A   5       8.998  33.512  35.491  0.00  0.00    -0.295 N 
ATOM      3  H   THR A   5       9.556  34.389  35.517  0.00  0.00    +0.150 HD
ATOM      4  O   SER A   4       8.433  31.673  34.270  0.00  0.00    -0.273 OA
ENDROOT
BRANCH   2   5
ATOM      5  CA  THR A   5       8.196  33.169  36.632  0.00  0.00    +0.176 C 
BRANCH   5   6
ATOM      6  C   THR A   5       6.698  33.256  36.387  0.00  0.00    +0.243 C 
ATOM      7  O   THR A   5       5.919  32.793  37.227  0.00  0.00    -0.273 OA
ATOM      8  N   ARG A   6       6.281  33.844  35.274  0.00  0.00    -0.298 N 
ATOM      9  H   ARG A   6       6.986  34.224  34.611  0.00  0.00    +0.150 HD
BRANCH   8  10
ATOM     10  CA  ARG A   6       4.868  33.974  34.952  0.00  0.00    +0.137 C 
BRANCH  10  11
ATOM     11  C   ARG A   6       4.641  33.663  33.476  0.00  0.00    +0.227 C 
ATOM     12  O   ARG A   6       4.477  34.545  32.657  0.00  0.00    -0.286 OA
ENDBRANCH  10  11
BRANCH  10  13
ATOM     13  CB  ARG A   6       4.335  35.361  35.322  0.00  0.00    +0.031 C 
BRANCH  13  14
ATOM     14  CG  ARG A   6       4.544  35.760  36.735  0.00  0.00    +0.045 C 
BRANCH  14  15
ATOM     15  CD  ARG A   6       3.718  37.132  37.055  0.00  0.00    +0.174 C 
BRANCH  15  16
ATOM     16  NE  ARG A   6       4.310  37.501  38.318  0.00  0.00    -0.265 N 
ATOM     17  HE  ARG A   6       3.897  37.081  39.175  0.00  0.00    +0.259 HD
ATOM     18  CZ  ARG A   6       5.323  38.319  38.481  0.00  0.00    +0.342 C 
ATOM     19  NH2 ARG A   6       5.798  38.476  39.690  0.00  0.00    -0.292 N 
ATOM     20 HH21 ARG A   6       5.373  37.960  40.487  0.00  0.00    +0.255 HD
ATOM     21 HH22 ARG A   6       6.600  39.117  39.854  0.00  0.00    +0.255 HD
ATOM     22  NH1 ARG A   6       5.799  39.010  37.434  0.00  0.00    -0.292 N 
ATOM     23 HH11 ARG A   6       6.602  39.659  37.561  0.00  0.00    +0.255 HD
ATOM     24 HH12 ARG A   6       5.365  38.897  36.496  0.00  0.00    +0.255 HD
ENDBRANCH  15  16
ENDBRANCH  14  15
ENDBRANCH  13  14
ENDBRANCH  10  13
ENDBRANCH   8  10
ENDBRANCH   5   6
BRANCH   5  25
ATOM     25  CB  THR A   5       8.609  34.046  37.808  0.00  0.00    +0.137 C 
ATOM     26  CG2 THR A   5       9.989  33.735  38.328  0.00  0.00    +0.034 C 
BRANCH  25  27
ATOM     27  OG1 THR A   5       8.510  35.396  37.329  0.00  0.00    -0.382 OA
ATOM     28  HG1 THR A   5       8.767  36.021  38.052  0.00  0.00    +0.210 HD
ENDBRANCH  25  27
ENDBRANCH   5  25
ENDBRANCH   2   5
BRANCH   1  29
ATOM     29  CA  SER A   4      10.011  33.231  33.304  0.00  0.00    +0.178 C 
BRANCH  29  31
ATOM     30  C   PRO A   3       9.070  35.462  33.011  0.00  0.00    +0.241 C 
ATOM     31  N   SER A   4      10.109  34.675  33.298  0.00  0.00    -0.295 N 
ATOM     32  H   SER A   4      11.023  35.116  33.526  0.00  0.00    +0.150 HD
ATOM     33  O   PRO A   3       7.952  35.005  32.764  0.00  0.00    -0.273 OA
BRANCH  30  36
ATOM     34  C   GLY A   2       9.872  38.050  31.036  0.00  0.00    +0.246 C 
ATOM     35  N   PRO A   3       8.968  37.759  31.969  0.00  0.00    -0.272 N 
ATOM     36  CA  PRO A   3       9.299  36.958  33.151  0.00  0.00    +0.152 C 
ATOM     37  CB  PRO A   3       8.347  37.545  34.202  0.00  0.00    +0.031 C 
ATOM     38  CG  PRO A   3       7.136  37.932  33.423  0.00  0.00    +0.024 C 
ATOM     39  CD  PRO A   3       7.705  38.519  32.132  0.00  0.00    +0.094 C 
ATOM     40  O   GLY A   2      10.891  37.347  30.870  0.00  0.00    -0.273 OA
BRANCH  34  41
ATOM     41  CA  GLY A   2       9.653  39.286  30.169  0.00  0.00    +0.176 C 
BRANCH  41  43
ATOM     42  C   VAL A   1      11.141  40.802  28.976  0.00  0.00    +0.238 C 
ATOM     43  N   GLY A   2      10.789  39.545  29.350  0.00  0.00    -0.296 N 
ATOM     44  H   GLY A   2      11.369  38.744  29.027  0.00  0.00    +0.150 HD
ATOM     45  O   VAL A   1      10.453  41.791  29.290  0.00  0.00    -0.274 OA
BRANCH  42  46
ATOM     46  CA  VAL A   1      12.434  40.960  28.189  0.00  0.00    +0.145 C 
BRANCH  46  47
ATOM     47  CB  VAL A   1      13.506  41.610  29.083  0.00  0.00    +0.025 C 
ATOM     48  CG2 VAL A   1      13.912  40.636  30.188  0.00  0.00    +0.002 C 
ATOM     49  CG1 VAL A   1      14.715  42.057  28.286  0.00  0.00    +0.002 C 
ENDBRANCH  46  47
BRANCH  46  50
ATOM     50  N   VAL A   1      12.136  41.778  27.022  0.00  0.00    -0.238 NA
ATOM     51  H   VAL A   1      11.639  42.680  27.170  0.00  0.00    +0.142 HD
ENDBRANCH  46  50
ENDBRANCH  42  46
ENDBRANCH  41  43
ENDBRANCH  34  41
ENDBRANCH  30  36
ENDBRANCH  29  31
BRANCH  29  52
ATOM     52  CB  SER A   4      11.386  32.625  33.546  0.00  0.00    +0.166 C 
BRANCH  52  53
ATOM     53  OG  SER A   4      11.353  31.243  33.733  0.00  0.00    -0.380 OA
ATOM     54  H   SER A   4      10.973  30.811  32.927  0.00  0.00    +0.211 HD
ENDBRANCH  52  53
ENDBRANCH  29  52
ENDBRANCH   1  29
TORSDOF 20
REMARK  Name = ../refined-set-2016/3w07/3w07_pocket.pdb
REMARK  203 active torsions:
REMARK  status: ('A' for Active; 'I' for Inactive)
REMARK    1  A    between atoms: _1  and  _3
REMARK    2  A    between atoms: _3  and  _4
REMARK    3  A    between atoms: _3  and  _6
REMARK    4  A    between atoms: _6  and  _7
REMARK    5  A    between atoms: _10  and  _12
REMARK    6  A    between atoms: _12  and  _13
REMARK    7  A    between atoms: _12  and  _15
REMARK    8  A    between atoms: _15  and  _16
REMARK    9  A    between atoms: _19  and  _21
REMARK   10  A    between atoms: _21  and  _22
REMARK   11  A    between atoms: _25  and  _27
REMARK   12  A    between atoms: _27  and  _28
REMARK   13  A    between atoms: _27  and  _30
REMARK   14  A    between atoms: _30  and  _31
REMARK   15  A    between atoms: _31  and  _32
REMARK   16  A    between atoms: _34  and  _36
REMARK   17  A    between atoms: _36  and  _37
REMARK   18  A    between atoms: _36  and  _39
REMARK   19  A    between atoms: _39  and  _40
REMARK   20  A    between atoms: _43  and  _45
REMARK   21  A    between atoms: _45  and  _46
REMARK   22  A    between atoms: _45  and  _48
REMARK   23  A    between atoms: _48  and  _49
REMARK   24  A    between atoms: _49  and  _50
REMARK   25  A    between atoms: _50  and  _51
REMARK   26  A    between atoms: _51  and  _52
REMARK   27  A    between atoms: _56  and  _58
REMARK   28  A    between atoms: _58  and  _59
REMARK   29  A    between atoms: _58  and  _61
REMARK   30  A    between atoms: _61  and  _62
REMARK   31  A    between atoms: _65  and  _67
REMARK   32  A    between atoms: _67  and  _68
REMARK   33  A    between atoms: _70  and  _72
REMARK   34  A    between atoms: _72  and  _73
REMARK   35  A    between atoms: _72  and  _75
REMARK   36  A    between atoms: _75  and  _76
REMARK   37  A    between atoms: _81  and  _82
REMARK   38  A    between atoms: _85  and  _86
REMARK   39  A    between atoms: _91  and  _93
REMARK   40  A    between atoms: _93  and  _94
REMARK   41  A    between atoms: _93  and  _96
REMARK   42  A    between atoms: _96  and  _97
REMARK   43  A    between atoms: _100  and  _102
REMARK   44  A    between atoms: _102  and  _103
REMARK   45  A    between atoms: _102  and  _105
REMARK   46  A    between atoms: _105  and  _106
REMARK   47  A    between atoms: _109  and  _111
REMARK   48  A    between atoms: _111  and  _112
REMARK   49  A    between atoms: _111  and  _114
REMARK   50  A    between atoms: _114  and  _115
REMARK   51  A    between atoms: _115  and  _116
REMARK   52  A    between atoms: _116  and  _117
REMARK   53  A    between atoms: _117  and  _118
REMARK   54  A    between atoms: _122  and  _124
REMARK   55  A    between atoms: _124  and  _125
REMARK   56  A    between atoms: _124  and  _127
REMARK   57  A    between atoms: _127  and  _128
REMARK   58  A    between atoms: _131  and  _133
REMARK   59  A    between atoms: _133  and  _134
REMARK   60  A    between atoms: _133  and  _136
REMARK   61  A    between atoms: _136  and  _137
REMARK   62  A    between atoms: _142  and  _144
REMARK   63  A    between atoms: _144  and  _145
REMARK   64  A    between atoms: _144  and  _147
REMARK   65  A    between atoms: _147  and  _148
REMARK   66  A    between atoms: _151  and  _153
REMARK   67  A    between atoms: _153  and  _154
REMARK   68  A    between atoms: _153  and  _156
REMARK   69  A    between atoms: _156  and  _157
REMARK   70  A    between atoms: _160  and  _162
REMARK   71  A    between atoms: _162  and  _163
REMARK   72  A    between atoms: _162  and  _165
REMARK   73  A    between atoms: _165  and  _166
REMARK   74  A    between atoms: _166  and  _167
REMARK   75  A    between atoms: _170  and  _172
REMARK   76  A    between atoms: _172  and  _173
REMARK   77  A    between atoms: _172  and  _175
REMARK   78  A    between atoms: _175  and  _176
REMARK   79  A    between atoms: _176  and  _177
REMARK   80  A    between atoms: _179  and  _181
REMARK   81  A    between atoms: _181  and  _182
REMARK   82  A    between atoms: _181  and  _184
REMARK   83  A    between atoms: _184  and  _185
REMARK   84  A    between atoms: _187  and  _189
REMARK   85  A    between atoms: _189  and  _190
REMARK   86  A    between atoms: _189  and  _192
REMARK   87  A    between atoms: _192  and  _193
REMARK   88  A    between atoms: _198  and  _200
REMARK   89  A    between atoms: _200  and  _201
REMARK   90  A    between atoms: _204  and  _206
REMARK   91  A    between atoms: _206  and  _207
REMARK   92  A    between atoms: _206  and  _209
REMARK   93  A    between atoms: _209  and  _210
REMARK   94  A    between atoms: _213  and  _215
REMARK   95  A    between atoms: _215  and  _216
REMARK   96  A    between atoms: _215  and  _218
REMARK   97  A    between atoms: _221  and  _223
REMARK   98  A    between atoms: _223  and  _224
REMARK   99  A    between atoms: _227  and  _228
REMARK  100  A    between atoms: _233  and  _235
REMARK  101  A    between atoms: _235  and  _236
REMARK  102  A    between atoms: _235  and  _238
REMARK  103  A    between atoms: _238  and  _239
REMARK  104  A    between atoms: _241  and  _243
REMARK  105  A    between atoms: _243  and  _244
REMARK  106  A    between atoms: _243  and  _246
REMARK  107  A    between atoms: _246  and  _247
REMARK  108  A    between atoms: _250  and  _252
REMARK  109  A    between atoms: _252  and  _253
REMARK  110  A    between atoms: _252  and  _255
REMARK  111  A    between atoms: _255  and  _256
REMARK  112  A    between atoms: _256  and  _257
REMARK  113  A    between atoms: _257  and  _258
REMARK  114  A    between atoms: _267  and  _269
REMARK  115  A    between atoms: _269  and  _270
REMARK  116  A    between atoms: _269  and  _272
REMARK  117  A    between atoms: _272  and  _273
REMARK  118  A    between atoms: _276  and  _277
REMARK  119  A    between atoms: _282  and  _284
REMARK  120  A    between atoms: _284  and  _285
REMARK  121  A    between atoms: _287  and  _289
REMARK  122  A    between atoms: _289  and  _290
REMARK  123  A    between atoms: _289  and  _292
REMARK  124  A    between atoms: _295  and  _297
REMARK  125  A    between atoms: _297  and  _298
REMARK  126  A    between atoms: _300  and  _302
REMARK  127  A    between atoms: _302  and  _303
REMARK  128  A    between atoms: _306  and  _308
REMARK  129  A    between atoms: _308  and  _309
REMARK  130  A    between atoms: _308  and  _311
REMARK  131  A    between atoms: _311  and  _312
REMARK  132  A    between atoms: _312  and  _313
REMARK  133  A    between atoms: _318  and  _320
REMARK  134  A    between atoms: _320  and  _321
REMARK  135  A    between atoms: _323  and  _325
REMARK  136  A    between atoms: _325  and  _326
REMARK  137  A    between atoms: _328  and  _330
REMARK  138  A    between atoms: _330  and  _331
REMARK  139  A    between atoms: _330  and  _333
REMARK  140  A    between atoms: _333  and  _334
REMARK  141  A    between atoms: _337  and  _339
REMARK  142  A    between atoms: _339  and  _340
REMARK  143  A    between atoms: _339  and  _342
REMARK  144  A    between atoms: _345  and  _347
REMARK  145  A    between atoms: _347  and  _348
REMARK  146  A    between atoms: _350  and  _352
REMARK  147  A    between atoms: _352  and  _353
REMARK  148  A    between atoms: _352  and  _355
REMARK  149  A    between atoms: _355  and  _356
REMARK  150  A    between atoms: _356  and  _357
REMARK  151  A    between atoms: _357  and  _358
REMARK  152  A    between atoms: _367  and  _369
REMARK  153  A    between atoms: _369  and  _370
REMARK  154  A    between atoms: _369  and  _372
REMARK  155  A    between atoms: _372  and  _373
REMARK  156  A    between atoms: _375  and  _377
REMARK  157  A    between atoms: _377  and  _378
REMARK  158  A    between atoms: _377  and  _380
REMARK  159  A    between atoms: _380  and  _381
REMARK  160  A    between atoms: _384  and  _386
REMARK  161  A    between atoms: _386  and  _387
REMARK  162  A    between atoms: _386  and  _389
REMARK  163  A    between atoms: _389  and  _390
REMARK  164  A    between atoms: _395  and  _396
REMARK  165  A    between atoms: _398  and  _400
REMARK  166  A    between atoms: _400  and  _401
REMARK  167  A    between atoms: _400  and  _403
REMARK  168  A    between atoms: _403  and  _404
REMARK  169  A    between atoms: _407  and  _409
REMARK  170  A    between atoms: _409  and  _410
REMARK  171  A    between atoms: _413  and  _415
REMARK  172  A    between atoms: _415  and  _416
REMARK  173  A    between atoms: _415  and  _418
REMARK  174  A    between atoms: _418  and  _419
REMARK  175  A    between atoms: _422  and  _424
REMARK  176  A    between atoms: _424  and  _425
REMARK  177  A    between atoms: _424  and  _427
REMARK  178  A    between atoms: _427  and  _428
REMARK  179  A    between atoms: _432  and  _433
REMARK  180  A    between atoms: _438  and  _440
REMARK  181  A    between atoms: _440  and  _441
REMARK  182  A    between atoms: _440  and  _443
REMARK  183  A    between atoms: _443  and  _444
REMARK  184  A    between atoms: _444  and  _445
REMARK  185  A    between atoms: _448  and  _450
REMARK  186  A    between atoms: _450  and  _451
REMARK  187  A    between atoms: _450  and  _453
REMARK  188  A    between atoms: _453  and  _454
REMARK  189  A    between atoms: _457  and  _459
REMARK  190  A    between atoms: _459  and  _460
REMARK  191  A    between atoms: _459  and  _462
REMARK  192  A    between atoms: _462  and  _463
REMARK  193  A    between atoms: _468  and  _470
REMARK  194  A    between atoms: _470  and  _471
REMARK  195  A    between atoms: _470  and  _473
REMARK  196  A    between atoms: _473  and  _474
REMARK  197  A    between atoms: _474  and  _475
REMARK  198  A    between atoms: _475  and  _476
REMARK  199  A    between atoms: _476  and  _477
REMARK  200  A    between atoms: _481  and  _483
REMARK  201  A    between atoms: _483  and  _484
REMARK  202  A    between atoms: _483  and  _486
REMARK  203  A    between atoms: _486  and  _487
REMARK                            x       y       z     vdW  Elec       q    Type
REMARK                         _______ _______ _______ _____ _____    ______ ____
ROOT
ATOM      1  CA  GLY A   5      16.146  28.334  38.127  0.00  0.00    +0.176 C 
ENDROOT
BRANCH   1   3
ATOM      2  C   VAL A   4      15.695  30.006  36.425  0.00  0.00    +0.241 C 
ATOM      3  N   GLY A   5      15.277  28.946  37.147  0.00  0.00    -0.295 N 
ATOM      4  H   GLY A   5      14.321  28.565  36.997  0.00  0.00    +0.150 HD
ATOM      5  O   VAL A   4      16.810  30.543  36.599  0.00  0.00    -0.273 OA
BRANCH   2   6
ATOM      6  CA  VAL A   4      14.775  30.508  35.354  0.00  0.00    +0.149 C 
BRANCH   6   9
ATOM      7  C   GLY A   3      13.795  32.532  36.328  0.00  0.00    +0.243 C 
ATOM      8  O   GLY A   3      13.023  31.918  37.056  0.00  0.00    -0.273 OA
ATOM      9  N   VAL A   4      14.620  31.947  35.493  0.00  0.00    -0.297 N 
ATOM     10  H   VAL A   4      15.205  32.556  34.887  0.00  0.00    +0.150 HD
BRANCH   7  11
ATOM     11  CA  GLY A   3      13.797  34.046  36.375  0.00  0.00    +0.176 C 
BRANCH  11  13
ATOM     12  C   PRO A   2      14.006  35.252  34.265  0.00  0.00    +0.241 C 
ATOM     13  N   GLY A   3      14.556  34.681  35.320  0.00  0.00    -0.295 N 
ATOM     14  H   GLY A   3      15.593  34.688  35.397  0.00  0.00    +0.150 HD
ATOM     15  O   PRO A   2      12.784  35.409  34.133  0.00  0.00    -0.273 OA
BRANCH  12  18
ATOM     16  C   SER A   1      14.252  35.307  30.965  0.00  0.00    +0.244 C 
ATOM     17  N   PRO A   2      14.370  36.158  32.008  0.00  0.00    -0.272 N 
ATOM     18  CA  PRO A   2      15.009  35.784  33.262  0.00  0.00    +0.152 C 
ATOM     19  CB  PRO A   2      15.578  37.128  33.749  0.00  0.00    +0.031 C 
ATOM     20  CG  PRO A   2      14.472  38.087  33.365  0.00  0.00    +0.024 C 
ATOM     21  CD  PRO A   2      13.948  37.565  32.043  0.00  0.00    +0.094 C 
ATOM     22  O   SER A   1      14.780  34.195  30.967  0.00  0.00    -0.273 OA
BRANCH  16  23
ATOM     23  CA  SER A   1      13.395  35.758  29.793  0.00  0.00    +0.175 C 
BRANCH  23  24
ATOM     24  N   SER A   1      14.146  35.895  28.555  0.00  0.00    -0.236 NA
ATOM     25  H   SER A   1      14.913  35.229  28.335  0.00  0.00    +0.142 HD
ENDBRANCH  23  24
BRANCH  23  26
ATOM     26  CB  SER A   1      12.282  34.765  29.557  0.00  0.00    +0.163 C 
BRANCH  26  27
ATOM     27  OG  SER A   1      11.467  34.621  30.698  0.00  0.00    -0.380 OA
ATOM     28  H   SER A   1      11.064  35.496  30.927  0.00  0.00    +0.211 HD
ENDBRANCH  26  27
ENDBRANCH  23  26
ENDBRANCH  16  23
ENDBRANCH  12  18
ENDBRANCH  11  13
ENDBRANCH   7  11
ENDBRANCH   6   9
BRANCH   6  29
ATOM     29  CB  VAL A   4      15.335  30.164  33.982  0.00  0.00    +0.027 C 
ATOM     30  CG2 VAL A   4      15.608  28.642  33.911  0.00  0.00    +0.002 C 
ATOM     31  CG1 VAL A   4      14.415  30.627  32.857  0.00  0.00    +0.002 C 
ENDBRANCH   6  29
ENDBRANCH   2   6
ENDBRANCH   1   3
BRANCH   1  32
ATOM     32  C   GLY A   5      15.909  28.917  39.519  0.00  0.00    +0.243 C 
ATOM     33  O   GLY A   5      14.897  28.607  40.162  0.00  0.00    -0.273 OA
ATOM     34  N   ALA A   6      16.787  29.786  39.966  0.00  0.00    -0.297 N 
ATOM     35  H   ALA A   6      17.545  30.114  39.335  0.00  0.00    +0.150 HD
BRANCH  34  36
ATOM     36  CA  ALA A   6      16.721  30.297  41.320  0.00  0.00    +0.149 C 
ATOM     37  CB  ALA A   6      17.864  31.284  41.595  0.00  0.00    +0.031 C 
BRANCH  36  38
ATOM     38  C   ALA A   6      15.392  30.947  41.637  0.00  0.00    +0.241 C 
ATOM     39  O   ALA A   6      14.910  30.798  42.771  0.00  0.00    -0.273 OA
ATOM     40  N   GLN A   7      14.798  31.703  40.728  0.00  0.00    -0.297 N 
ATOM     41  H   GLN A   7      15.242  31.818  39.795  0.00  0.00    +0.150 HD
BRANCH  40  42
ATOM     42  CA  GLN A   7      13.545  32.374  41.001  0.00  0.00    +0.149 C 
BRANCH  42  43
ATOM     43  C   GLN A   7      12.329  31.473  40.809  0.00  0.00    +0.241 C 
ATOM     44  O   GLN A   7      11.217  31.893  41.036  0.00  0.00    -0.273 OA
ATOM     45  N   GLY A   8      12.540  30.260  40.301  0.00  0.00    -0.295 N 
ATOM     46  H   GLY A   8      13.495  30.011  39.973  0.00  0.00    +0.150 HD
BRANCH  45  47
ATOM     47  CA  GLY A   8      11.470  29.266  40.189  0.00  0.00    +0.176 C 
BRANCH  47  48
ATOM     48  C   GLY A   8      11.016  28.975  38.779  0.00  0.00    +0.243 C 
ATOM     49  O   GLY A   8      10.194  28.050  38.589  0.00  0.00    -0.273 OA
ATOM     50  N   GLY A   9      11.461  29.685  37.766  0.00  0.00    -0.296 N 
ATOM     51  H   GLY A   9      12.130  30.460  37.947  0.00  0.00    +0.150 HD
BRANCH  50  52
ATOM     52  CA  GLY A   9      11.043  29.416  36.399  0.00  0.00    +0.163 C 
BRANCH  52  53
ATOM     53  C   GLY A   9      11.675  28.172  35.805  0.00  0.00    +0.229 C 
ATOM     54  O   GLY A   9      12.749  27.735  36.234  0.00  0.00    -0.286 OA
ENDBRANCH  52  53
ENDBRANCH  50  52
ENDBRANCH  47  48
ENDBRANCH  45  47
ENDBRANCH  42  43
BRANCH  42  55
ATOM     55  CB  GLN A   7      13.401  33.641  40.123  0.00  0.00    +0.039 C 
BRANCH  55  56
ATOM     56  CG  GLN A   7      14.449  34.681  40.463  0.00  0.00    +0.087 C 
BRANCH  56  57
ATOM     57  CD  GLN A   7      14.299  35.878  39.525  0.00  0.00    +0.219 C 
ATOM     58  OE1 GLN A   7      13.232  36.498  39.474  0.00  0.00    -0.275 OA
ATOM     59  NE2 GLN A   7      15.333  36.185  38.765  0.00  0.00    -0.329 N 
ATOM     60 HE21 GLN A   7      16.214  35.637  38.839  0.00  0.00    +0.145 HD
ATOM     61 HE22 GLN A   7      15.267  36.975  38.092  0.00  0.00    +0.145 HD
ENDBRANCH  56  57
ENDBRANCH  55  56
ENDBRANCH  42  55
ENDBRANCH  40  42
ENDBRANCH  36  38
ENDBRANCH  34  36
ENDBRANCH   1  32
TORSDOF 23
REMARK  Name = ../refined-set-2016/3w07/3w07_pocket.pdb
REMARK  203 active torsions:
REMARK  status: ('A' for Active; 'I' for Inactive)
REMARK    1  A    between atoms: _1  and  _3
REMARK    2  A    between atoms: _3  and  _4
REMARK    3  A    between atoms: _3  and  _6
REMARK    4  A    between atoms: _6  and  _7
REMARK    5  A    between atoms: _10  and  _12
REMARK    6  A    between atoms: _12  and  _13
REMARK    7  A    between atoms: _12  and  _15
REMARK    8  A    between atoms: _15  and  _16
REMARK    9  A    between atoms: _19  and  _21
REMARK   10  A    between atoms: _21  and  _22
REMARK   11  A    between atoms: _25  and  _27
REMARK   12  A    between atoms: _27  and  _28
REMARK   13  A    between atoms: _27  and  _30
REMARK   14  A    between atoms: _30  and  _31
REMARK   15  A    between atoms: _31  and  _32
REMARK   16  A    between atoms: _34  and  _36
REMARK   17  A    between atoms: _36  and  _37
REMARK   18  A    between atoms: _36  and  _39
REMARK   19  A    between atoms: _39  and  _40
REMARK   20  A    between atoms: _43  and  _45
REMARK   21  A    between atoms: _45  and  _46
REMARK   22  A    between atoms: _45  and  _48
REMARK   23  A    between atoms: _48  and  _49
REMARK   24  A    between atoms: _49  and  _50
REMARK   25  A    between atoms: _50  and  _51
REMARK   26  A    between atoms: _51  and  _52
REMARK   27  A    between atoms: _56  and  _58
REMARK   28  A    between atoms: _58  and  _59
REMARK   29  A    between atoms: _58  and  _61
REMARK   30  A    between atoms: _61  and  _62
REMARK   31  A    between atoms: _65  and  _67
REMARK   32  A    between atoms: _67  and  _68
REMARK   33  A    between atoms: _70  and  _72
REMARK   34  A    between atoms: _72  and  _73
REMARK   35  A    between atoms: _72  and  _75
REMARK   36  A    between atoms: _75  and  _76
REMARK   37  A    between atoms: _81  and  _82
REMARK   38  A    between atoms: _85  and  _86
REMARK   39  A    between atoms: _91  and  _93
REMARK   40  A    between atoms: _93  and  _94
REMARK   41  A    between atoms: _93  and  _96
REMARK   42  A    between atoms: _96  and  _97
REMARK   43  A    between atoms: _100  and  _102
REMARK   44  A    between atoms: _102  and  _103
REMARK   45  A    between atoms: _102  and  _105
REMARK   46  A    between atoms: _105  and  _106
REMARK   47  A    between atoms: _109  and  _111
REMARK   48  A    between atoms: _111  and  _112
REMARK   49  A    between atoms: _111  and  _114
REMARK   50  A    between atoms: _114  and  _115
REMARK   51  A    between atoms: _115  and  _116
REMARK   52  A    between atoms: _116  and  _117
REMARK   53  A    between atoms: _117  and  _118
REMARK   54  A    between atoms: _122  and  _124
REMARK   55  A    between atoms: _124  and  _125
REMARK   56  A    between atoms: _124  and  _127
REMARK   57  A    between atoms: _127  and  _128
REMARK   58  A    between atoms: _131  and  _133
REMARK   59  A    between atoms: _133  and  _134
REMARK   60  A    between atoms: _133  and  _136
REMARK   61  A    between atoms: _136  and  _137
REMARK   62  A    between atoms: _142  and  _144
REMARK   63  A    between atoms: _144  and  _145
REMARK   64  A    between atoms: _144  and  _147
REMARK   65  A    between atoms: _147  and  _148
REMARK   66  A    between atoms: _151  and  _153
REMARK   67  A    between atoms: _153  and  _154
REMARK   68  A    between atoms: _153  and  _156
REMARK   69  A    between atoms: _156  and  _157
REMARK   70  A    between atoms: _160  and  _162
REMARK   71  A    between atoms: _162  and  _163
REMARK   72  A    between atoms: _162  and  _165
REMARK   73  A    between atoms: _165  and  _166
REMARK   74  A    between atoms: _166  and  _167
REMARK   75  A    between atoms: _170  and  _172
REMARK   76  A    between atoms: _172  and  _173
REMARK   77  A    between atoms: _172  and  _175
REMARK   78  A    between atoms: _175  and  _176
REMARK   79  A    between atoms: _176  and  _177
REMARK   80  A    between atoms: _179  and  _181
REMARK   81  A    between atoms: _181  and  _182
REMARK   82  A    between atoms: _181  and  _184
REMARK   83  A    between atoms: _184  and  _185
REMARK   84  A    between atoms: _187  and  _189
REMARK   85  A    between atoms: _189  and  _190
REMARK   86  A    between atoms: _189  and  _192
REMARK   87  A    between atoms: _192  and  _193
REMARK   88  A    between atoms: _198  and  _200
REMARK   89  A    between atoms: _200  and  _201
REMARK   90  A    between atoms: _204  and  _206
REMARK   91  A    between atoms: _206  and  _207
REMARK   92  A    between atoms: _206  and  _209
REMARK   93  A    between atoms: _209  and  _210
REMARK   94  A    between atoms: _213  and  _215
REMARK   95  A    between atoms: _215  and  _216
REMARK   96  A    between atoms: _215  and  _218
REMARK   97  A    between atoms: _221  and  _223
REMARK   98  A    between atoms: _223  and  _224
REMARK   99  A    between atoms: _227  and  _228
REMARK  100  A    between atoms: _233  and  _235
REMARK  101  A    between atoms: _235  and  _236
REMARK  102  A    between atoms: _235  and  _238
REMARK  103  A    between atoms: _238  and  _239
REMARK  104  A    between atoms: _241  and  _243
REMARK  105  A    between atoms: _243  and  _244
REMARK  106  A    between atoms: _243  and  _246
REMARK  107  A    between atoms: _246  and  _247
REMARK  108  A    between atoms: _250  and  _252
REMARK  109  A    between atoms: _252  and  _253
REMARK  110  A    between atoms: _252  and  _255
REMARK  111  A    between atoms: _255  and  _256
REMARK  112  A    between atoms: _256  and  _257
REMARK  113  A    between atoms: _257  and  _258
REMARK  114  A    between atoms: _267  and  _269
REMARK  115  A    between atoms: _269  and  _270
REMARK  116  A    between atoms: _269  and  _272
REMARK  117  A    between atoms: _272  and  _273
REMARK  118  A    between atoms: _276  and  _277
REMARK  119  A    between atoms: _282  and  _284
REMARK  120  A    between atoms: _284  and  _285
REMARK  121  A    between atoms: _287  and  _289
REMARK  122  A    between atoms: _289  and  _290
REMARK  123  A    between atoms: _289  and  _292
REMARK  124  A    between atoms: _295  and  _297
REMARK  125  A    between atoms: _297  and  _298
REMARK  126  A    between atoms: _300  and  _302
REMARK  127  A    between atoms: _302  and  _303
REMARK  128  A    between atoms: _306  and  _308
REMARK  129  A    between atoms: _308  and  _309
REMARK  130  A    between atoms: _308  and  _311
REMARK  131  A    between atoms: _311  and  _312
REMARK  132  A    between atoms: _312  and  _313
REMARK  133  A    between atoms: _318  and  _320
REMARK  134  A    between atoms: _320  and  _321
REMARK  135  A    between atoms: _323  and  _325
REMARK  136  A    between atoms: _325  and  _326
REMARK  137  A    between atoms: _328  and  _330
REMARK  138  A    between atoms: _330  and  _331
REMARK  139  A    between atoms: _330  and  _333
REMARK  140  A    between atoms: _333  and  _334
REMARK  141  A    between atoms: _337  and  _339
REMARK  142  A    between atoms: _339  and  _340
REMARK  143  A    between atoms: _339  and  _342
REMARK  144  A    between atoms: _345  and  _347
REMARK  145  A    between atoms: _347  and  _348
REMARK  146  A    between atoms: _350  and  _352
REMARK  147  A    between atoms: _352  and  _353
REMARK  148  A    between atoms: _352  and  _355
REMARK  149  A    between atoms: _355  and  _356
REMARK  150  A    between atoms: _356  and  _357
REMARK  151  A    between atoms: _357  and  _358
REMARK  152  A    between atoms: _367  and  _369
REMARK  153  A    between atoms: _369  and  _370
REMARK  154  A    between atoms: _369  and  _372
REMARK  155  A    between atoms: _372  and  _373
REMARK  156  A    between atoms: _375  and  _377
REMARK  157  A    between atoms: _377  and  _378
REMARK  158  A    between atoms: _377  and  _380
REMARK  159  A    between atoms: _380  and  _381
REMARK  160  A    between atoms: _384  and  _386
REMARK  161  A    between atoms: _386  and  _387
REMARK  162  A    between atoms: _386  and  _389
REMARK  163  A    between atoms: _389  and  _390
REMARK  164  A    between atoms: _395  and  _396
REMARK  165  A    between atoms: _398  and  _400
REMARK  166  A    between atoms: _400  and  _401
REMARK  167  A    between atoms: _400  and  _403
REMARK  168  A    between atoms: _403  and  _404
REMARK  169  A    between atoms: _407  and  _409
REMARK  170  A    between atoms: _409  and  _410
REMARK  171  A    between atoms: _413  and  _415
REMARK  172  A    between atoms: _415  and  _416
REMARK  173  A    between atoms: _415  and  _418
REMARK  174  A    between atoms: _418  and  _419
REMARK  175  A    between atoms: _422  and  _424
REMARK  176  A    between atoms: _424  and  _425
REMARK  177  A    between atoms: _424  and  _427
REMARK  178  A    between atoms: _427  and  _428
REMARK  179  A    between atoms: _432  and  _433
REMARK  180  A    between atoms: _438  and  _440
REMARK  181  A    between atoms: _440  and  _441
REMARK  182  A    between atoms: _440  and  _443
REMARK  183  A    between atoms: _443  and  _444
REMARK  184  A    between atoms: _444  and  _445
REMARK  185  A    between atoms: _448  and  _450
REMARK  186  A    between atoms: _450  and  _451
REMARK  187  A    between atoms: _450  and  _453
REMARK  188  A    between atoms: _453  and  _454
REMARK  189  A    between atoms: _457  and  _459
REMARK  190  A    between atoms: _459  and  _460
REMARK  191  A    between atoms: _459  and  _462
REMARK  192  A    between atoms: _462  and  _463
REMARK  193  A    between atoms: _468  and  _470
REMARK  194  A    between atoms: _470  and  _471
REMARK  195  A    between atoms: _470  and  _473
REMARK  196  A    between atoms: _473  and  _474
REMARK  197  A    between atoms: _474  and  _475
REMARK  198  A    between atoms: _475  and  _476
REMARK  199  A    between atoms: _476  and  _477
REMARK  200  A    between atoms: _481  and  _483
REMARK  201  A    between atoms: _483  and  _484
REMARK  202  A    between atoms: _483  and  _486
REMARK  203  A    between atoms: _486  and  _487
REMARK                            x       y       z     vdW  Elec       q    Type
REMARK                         _______ _______ _______ _____ _____    ______ ____
ROOT
ATOM      1  C   ARG A   4      22.657  30.194  39.804  0.00  0.00    +0.241 C 
ATOM      2  O   ARG A   4      23.578  29.524  40.324  0.00  0.00    -0.273 OA
ATOM      3  N   SER A   5      21.655  29.646  39.123  0.00  0.00    -0.295 N 
ATOM      4  H   SER A   5      20.905  30.245  38.723  0.00  0.00    +0.150 HD
ENDROOT
BRANCH   3   5
ATOM      5  CA  SER A   5      21.614  28.179  38.938  0.00  0.00    +0.178 C 
BRANCH   5   6
ATOM      6  C   SER A   5      22.877  27.692  38.255  0.00  0.00    +0.243 C 
ATOM      7  O   SER A   5      23.241  26.514  38.398  0.00  0.00    -0.273 OA
ATOM      8  N   ILE A   6      23.511  28.539  37.470  0.00  0.00    -0.297 N 
ATOM      9  H   ILE A   6      23.065  29.454  37.257  0.00  0.00    +0.150 HD
BRANCH   8  10
ATOM     10  CA  ILE A   6      24.817  28.241  36.888  0.00  0.00    +0.149 C 
BRANCH  10  11
ATOM     11  C   ILE A   6      25.946  28.748  37.742  0.00  0.00    +0.241 C 
ATOM     12  O   ILE A   6      26.811  27.957  38.146  0.00  0.00    -0.273 OA
ATOM     13  N   TYR A   7      26.016  30.047  38.060  0.00  0.00    -0.297 N 
ATOM     14  H   TYR A   7      25.190  30.663  37.920  0.00  0.00    +0.150 HD
BRANCH  13  15
ATOM     15  CA  TYR A   7      27.236  30.587  38.596  0.00  0.00    +0.153 C 
BRANCH  15  16
ATOM     16  C   TYR A   7      27.458  30.278  40.066  0.00  0.00    +0.241 C 
ATOM     17  N   LEU A   8      26.426  29.844  40.790  0.00  0.00    -0.298 N 
ATOM     18  H   LEU A   8      25.473  29.831  40.374  0.00  0.00    +0.150 HD
ATOM     19  O   TYR A   7      28.587  30.453  40.518  0.00  0.00    -0.273 OA
BRANCH  17  20
ATOM     20  CA  LEU A   8      26.625  29.385  42.166  0.00  0.00    +0.137 C 
BRANCH  20  21
ATOM     21  C   LEU A   8      26.683  27.868  42.248  0.00  0.00    +0.227 C 
ATOM     22  O   LEU A   8      26.857  27.337  43.362  0.00  0.00    -0.286 OA
ENDBRANCH  20  21
BRANCH  20  23
ATOM     23  CB  LEU A   8      25.524  29.894  43.086  0.00  0.00    +0.028 C 
BRANCH  23  24
ATOM     24  CG  LEU A   8      25.414  31.393  43.265  0.00  0.00    +0.002 C 
ATOM     25  CD2 LEU A   8      24.341  31.761  44.269  0.00  0.00    +0.000 C 
ATOM     26  CD1 LEU A   8      26.777  31.926  43.691  0.00  0.00    +0.000 C 
ENDBRANCH  23  24
ENDBRANCH  20  23
ENDBRANCH  17  20
ENDBRANCH  15  16
BRANCH  15  27
ATOM     27  CB  TYR A   7      27.403  32.057  38.276  0.00  0.00    +0.055 C 
BRANCH  27  28
ATOM     28  CG  TYR A   7      26.530  33.067  38.963  0.00  0.00    -0.020 A 
ATOM     29  CD2 TYR A   7      26.615  33.355  40.315  0.00  0.00    -0.001 A 
ATOM     30  CE2 TYR A   7      25.825  34.272  40.960  0.00  0.00    +0.036 A 
ATOM     31  CZ  TYR A   7      24.926  35.005  40.214  0.00  0.00    +0.134 A 
ATOM     32  CE1 TYR A   7      24.827  34.767  38.850  0.00  0.00    +0.036 A 
ATOM     33  CD1 TYR A   7      25.609  33.812  38.226  0.00  0.00    -0.001 A 
BRANCH  31  34
ATOM     34  OH  TYR A   7      24.170  35.943  40.862  0.00  0.00    -0.506 OA
ATOM     35  HH  TYR A   7      23.211  35.725  40.753  0.00  0.00    +0.292 HD
ENDBRANCH  31  34
ENDBRANCH  27  28
ENDBRANCH  15  27
ENDBRANCH  13  15
ENDBRANCH  10  11
BRANCH  10  36
ATOM     36  CB  ILE A   6      24.914  28.739  35.418  0.00  0.00    +0.027 C 
ATOM     37  CG2 ILE A   6      26.332  28.633  34.919  0.00  0.00    +0.002 C 
BRANCH  36  38
ATOM     38  CG1 ILE A   6      23.900  28.027  34.521  0.00  0.00    +0.002 C 
ATOM     39  CD1 ILE A   6      23.740  28.655  33.162  0.00  0.00    +0.000 C 
ENDBRANCH  36  38
ENDBRANCH  10  36
ENDBRANCH   8  10
ENDBRANCH   5   6
BRANCH   5  40
ATOM     40  CB  SER A   5      20.406  27.813  38.056  0.00  0.00    +0.166 C 
BRANCH  40  41
ATOM     41  OG  SER A   5      19.224  27.971  38.802  0.00  0.00    -0.380 OA
ATOM     42  H   SER A   5      19.146  28.912  39.099  0.00  0.00    +0.211 HD
ENDBRANCH  40  41
ENDBRANCH   5  40
ENDBRANCH   3   5
BRANCH   1  43
ATOM     43  CA  ARG A   4      22.670  31.708  40.018  0.00  0.00    +0.149 C 
BRANCH  43  45
ATOM     44  C   GLY A   3      22.751  32.326  37.659  0.00  0.00    +0.243 C 
ATOM     45  N   ARG A   4      22.221  32.451  38.844  0.00  0.00    -0.297 N 
ATOM     46  H   ARG A   4      21.432  33.119  38.960  0.00  0.00    +0.150 HD
ATOM     47  O   GLY A   3      23.564  31.433  37.384  0.00  0.00    -0.273 OA
BRANCH  44  48
ATOM     48  CA  GLY A   3      22.329  33.346  36.617  0.00  0.00    +0.176 C 
BRANCH  48  50
ATOM     49  C   VAL A   2      21.408  32.519  34.519  0.00  0.00    +0.241 C 
ATOM     50  N   GLY A   3      21.254  32.877  35.805  0.00  0.00    -0.295 N 
ATOM     51  H   GLY A   3      20.306  32.809  36.228  0.00  0.00    +0.150 HD
ATOM     52  O   VAL A   2      22.479  32.582  33.885  0.00  0.00    -0.273 OA
BRANCH  49  53
ATOM     53  CA  VAL A   2      20.171  31.976  33.830  0.00  0.00    +0.148 C 
BRANCH  53  56
ATOM     54  C   ILE A   1      18.720  33.179  32.291  0.00  0.00    +0.238 C 
ATOM     55  O   ILE A   1      17.702  32.983  32.960  0.00  0.00    -0.274 OA
ATOM     56  N   VAL A   2      19.925  32.735  32.634  0.00  0.00    -0.297 N 
ATOM     57  H   VAL A   2      20.728  32.947  32.008  0.00  0.00    +0.150 HD
BRANCH  54  58
ATOM     58  CA  ILE A   1      18.606  33.990  31.015  0.00  0.00    +0.145 C 
BRANCH  58  59
ATOM     59  CB  ILE A   1      18.329  35.457  31.356  0.00  0.00    +0.025 C 
ATOM     60  CG2 ILE A   1      19.329  35.964  32.365  0.00  0.00    +0.002 C 
BRANCH  59  61
ATOM     61  CG1 ILE A   1      18.292  36.342  30.102  0.00  0.00    +0.002 C 
ATOM     62  CD1 ILE A   1      17.559  37.643  30.334  0.00  0.00    +0.000 C 
ENDBRANCH  59  61
ENDBRANCH  58  59
BRANCH  58  63
ATOM     63  N   ILE A   1      17.509  33.450  30.239  0.00  0.00    -0.238 NA
ATOM     64  H   ILE A   1      16.540  33.704  30.520  0.00  0.00    +0.142 HD
ENDBRANCH  58  63
ENDBRANCH  54  58
ENDBRANCH  53  56
BRANCH  53  65
ATOM     65  CB  VAL A   2      20.334  30.467  33.553  0.00  0.00    +0.027 C 
ATOM     66  CG2 VAL A   2      20.587  29.713  34.847  0.00  0.00    +0.002 C 
ATOM     67  CG1 VAL A   2      19.094  29.919  32.836  0.00  0.00    +0.002 C 
ENDBRANCH  53  65
ENDBRANCH  49  53
ENDBRANCH  48  50
ENDBRANCH  44  48
ENDBRANCH  43  45
BRANCH  43  68
ATOM     68  CB  ARG A   4      21.828  32.089  41.240  0.00  0.00    +0.033 C 
BRANCH  68  69
ATOM     69  CG  ARG A   4      22.152  33.446  41.804  0.00  0.00    +0.045 C 
BRANCH  69  70
ATOM     70  CD  ARG A   4      21.136  33.965  42.766  0.00  0.00    +0.174 C 
BRANCH  70  71
ATOM     71  NE  ARG A   4      19.934  34.316  42.053  0.00  0.00    -0.265 N 
ATOM     72  CZ  ARG A   4      18.778  34.625  42.610  0.00  0.00    +0.342 C 
ATOM     73  NH2 ARG A   4      18.654  34.565  43.972  0.00  0.00    -0.292 N 
ATOM     74 HH21 ARG A   4      19.465  34.278  44.556  0.00  0.00    +0.255 HD
ATOM     75 HH22 ARG A   4      17.748  34.806  44.423  0.00  0.00    +0.255 HD
ATOM     76  NH1 ARG A   4      17.722  34.973  41.892  0.00  0.00    -0.292 N 
ATOM     77 HH11 ARG A   4      16.827  35.210  42.365  0.00  0.00    +0.255 HD
ATOM     78 HH12 ARG A   4      17.788  35.009  40.855  0.00  0.00    +0.255 HD
ATOM     79  HE  ARG A   4      19.981  34.327  41.014  0.00  0.00    +0.259 HD
ENDBRANCH  70  71
ENDBRANCH  69  70
ENDBRANCH  68  69
ENDBRANCH  43  68
ENDBRANCH   1  43
TORSDOF 32
REMARK  Name = ../refined-set-2016/3w07/3w07_pocket.pdb
REMARK  203 active torsions:
REMARK  status: ('A' for Active; 'I' for Inactive)
REMARK    1  A    between atoms: _1  and  _3
REMARK    2  A    between atoms: _3  and  _4
REMARK    3  A    between atoms: _3  and  _6
REMARK    4  A    between atoms: _6  and  _7
REMARK    5  A    between atoms: _10  and  _12
REMARK    6  A    between atoms: _12  and  _13
REMARK    7  A    between atoms: _12  and  _15
REMARK    8  A    between atoms: _15  and  _16
REMARK    9  A    between atoms: _19  and  _21
REMARK   10  A    between atoms: _21  and  _22
REMARK   11  A    between atoms: _25  and  _27
REMARK   12  A    between atoms: _27  and  _28
REMARK   13  A    between atoms: _27  and  _30
REMARK   14  A    between atoms: _30  and  _31
REMARK   15  A    between atoms: _31  and  _32
REMARK   16  A    between atoms: _34  and  _36
REMARK   17  A    between atoms: _36  and  _37
REMARK   18  A    between atoms: _36  and  _39
REMARK   19  A    between atoms: _39  and  _40
REMARK   20  A    between atoms: _43  and  _45
REMARK   21  A    between atoms: _45  and  _46
REMARK   22  A    between atoms: _45  and  _48
REMARK   23  A    between atoms: _48  and  _49
REMARK   24  A    between atoms: _49  and  _50
REMARK   25  A    between atoms: _50  and  _51
REMARK   26  A    between atoms: _51  and  _52
REMARK   27  A    between atoms: _56  and  _58
REMARK   28  A    between atoms: _58  and  _59
REMARK   29  A    between atoms: _58  and  _61
REMARK   30  A    between atoms: _61  and  _62
REMARK   31  A    between atoms: _65  and  _67
REMARK   32  A    between atoms: _67  and  _68
REMARK   33  A    between atoms: _70  and  _72
REMARK   34  A    between atoms: _72  and  _73
REMARK   35  A    between atoms: _72  and  _75
REMARK   36  A    between atoms: _75  and  _76
REMARK   37  A    between atoms: _81  and  _82
REMARK   38  A    between atoms: _85  and  _86
REMARK   39  A    between atoms: _91  and  _93
REMARK   40  A    between atoms: _93  and  _94
REMARK   41  A    between atoms: _93  and  _96
REMARK   42  A    between atoms: _96  and  _97
REMARK   43  A    between atoms: _100  and  _102
REMARK   44  A    between atoms: _102  and  _103
REMARK   45  A    between atoms: _102  and  _105
REMARK   46  A    between atoms: _105  and  _106
REMARK   47  A    between atoms: _109  and  _111
REMARK   48  A    between atoms: _111  and  _112
REMARK   49  A    between atoms: _111  and  _114
REMARK   50  A    between atoms: _114  and  _115
REMARK   51  A    between atoms: _115  and  _116
REMARK   52  A    between atoms: _116  and  _117
REMARK   53  A    between atoms: _117  and  _118
REMARK   54  A    between atoms: _122  and  _124
REMARK   55  A    between atoms: _124  and  _125
REMARK   56  A    between atoms: _124  and  _127
REMARK   57  A    between atoms: _127  and  _128
REMARK   58  A    between atoms: _131  and  _133
REMARK   59  A    between atoms: _133  and  _134
REMARK   60  A    between atoms: _133  and  _136
REMARK   61  A    between atoms: _136  and  _137
REMARK   62  A    between atoms: _142  and  _144
REMARK   63  A    between atoms: _144  and  _145
REMARK   64  A    between atoms: _144  and  _147
REMARK   65  A    between atoms: _147  and  _148
REMARK   66  A    between atoms: _151  and  _153
REMARK   67  A    between atoms: _153  and  _154
REMARK   68  A    between atoms: _153  and  _156
REMARK   69  A    between atoms: _156  and  _157
REMARK   70  A    between atoms: _160  and  _162
REMARK   71  A    between atoms: _162  and  _163
REMARK   72  A    between atoms: _162  and  _165
REMARK   73  A    between atoms: _165  and  _166
REMARK   74  A    between atoms: _166  and  _167
REMARK   75  A    between atoms: _170  and  _172
REMARK   76  A    between atoms: _172  and  _173
REMARK   77  A    between atoms: _172  and  _175
REMARK   78  A    between atoms: _175  and  _176
REMARK   79  A    between atoms: _176  and  _177
REMARK   80  A    between atoms: _179  and  _181
REMARK   81  A    between atoms: _181  and  _182
REMARK   82  A    between atoms: _181  and  _184
REMARK   83  A    between atoms: _184  and  _185
REMARK   84  A    between atoms: _187  and  _189
REMARK   85  A    between atoms: _189  and  _190
REMARK   86  A    between atoms: _189  and  _192
REMARK   87  A    between atoms: _192  and  _193
REMARK   88  A    between atoms: _198  and  _200
REMARK   89  A    between atoms: _200  and  _201
REMARK   90  A    between atoms: _204  and  _206
REMARK   91  A    between atoms: _206  and  _207
REMARK   92  A    between atoms: _206  and  _209
REMARK   93  A    between atoms: _209  and  _210
REMARK   94  A    between atoms: _213  and  _215
REMARK   95  A    between atoms: _215  and  _216
REMARK   96  A    between atoms: _215  and  _218
REMARK   97  A    between atoms: _221  and  _223
REMARK   98  A    between atoms: _223  and  _224
REMARK   99  A    between atoms: _227  and  _228
REMARK  100  A    between atoms: _233  and  _235
REMARK  101  A    between atoms: _235  and  _236
REMARK  102  A    between atoms: _235  and  _238
REMARK  103  A    between atoms: _238  and  _239
REMARK  104  A    between atoms: _241  and  _243
REMARK  105  A    between atoms: _243  and  _244
REMARK  106  A    between atoms: _243  and  _246
REMARK  107  A    between atoms: _246  and  _247
REMARK  108  A    between atoms: _250  and  _252
REMARK  109  A    between atoms: _252  and  _253
REMARK  110  A    between atoms: _252  and  _255
REMARK  111  A    between atoms: _255  and  _256
REMARK  112  A    between atoms: _256  and  _257
REMARK  113  A    between atoms: _257  and  _258
REMARK  114  A    between atoms: _267  and  _269
REMARK  115  A    between atoms: _269  and  _270
REMARK  116  A    between atoms: _269  and  _272
REMARK  117  A    between atoms: _272  and  _273
REMARK  118  A    between atoms: _276  and  _277
REMARK  119  A    between atoms: _282  and  _284
REMARK  120  A    between atoms: _284  and  _285
REMARK  121  A    between atoms: _287  and  _289
REMARK  122  A    between atoms: _289  and  _290
REMARK  123  A    between atoms: _289  and  _292
REMARK  124  A    between atoms: _295  and  _297
REMARK  125  A    between atoms: _297  and  _298
REMARK  126  A    between atoms: _300  and  _302
REMARK  127  A    between atoms: _302  and  _303
REMARK  128  A    between atoms: _306  and  _308
REMARK  129  A    between atoms: _308  and  _309
REMARK  130  A    between atoms: _308  and  _311
REMARK  131  A    between atoms: _311  and  _312
REMARK  132  A    between atoms: _312  and  _313
REMARK  133  A    between atoms: _318  and  _320
REMARK  134  A    between atoms: _320  and  _321
REMARK  135  A    between atoms: _323  and  _325
REMARK  136  A    between atoms: _325  and  _326
REMARK  137  A    between atoms: _328  and  _330
REMARK  138  A    between atoms: _330  and  _331
REMARK  139  A    between atoms: _330  and  _333
REMARK  140  A    between atoms: _333  and  _334
REMARK  141  A    between atoms: _337  and  _339
REMARK  142  A    between atoms: _339  and  _340
REMARK  143  A    between atoms: _339  and  _342
REMARK  144  A    between atoms: _345  and  _347
REMARK  145  A    between atoms: _347  and  _348
REMARK  146  A    between atoms: _350  and  _352
REMARK  147  A    between atoms: _352  and  _353
REMARK  148  A    between atoms: _352  and  _355
REMARK  149  A    between atoms: _355  and  _356
REMARK  150  A    between atoms: _356  and  _357
REMARK  151  A    between atoms: _357  and  _358
REMARK  152  A    between atoms: _367  and  _369
REMARK  153  A    between atoms: _369  and  _370
REMARK  154  A    between atoms: _369  and  _372
REMARK  155  A    between atoms: _372  and  _373
REMARK  156  A    between atoms: _375  and  _377
REMARK  157  A    between atoms: _377  and  _378
REMARK  158  A    between atoms: _377  and  _380
REMARK  159  A    between atoms: _380  and  _381
REMARK  160  A    between atoms: _384  and  _386
REMARK  161  A    between atoms: _386  and  _387
REMARK  162  A    between atoms: _386  and  _389
REMARK  163  A    between atoms: _389  and  _390
REMARK  164  A    between atoms: _395  and  _396
REMARK  165  A    between atoms: _398  and  _400
REMARK  166  A    between atoms: _400  and  _401
REMARK  167  A    between atoms: _400  and  _403
REMARK  168  A    between atoms: _403  and  _404
REMARK  169  A    between atoms: _407  and  _409
REMARK  170  A    between atoms: _409  and  _410
REMARK  171  A    between atoms: _413  and  _415
REMARK  172  A    between atoms: _415  and  _416
REMARK  173  A    between atoms: _415  and  _418
REMARK  174  A    between atoms: _418  and  _419
REMARK  175  A    between atoms: _422  and  _424
REMARK  176  A    between atoms: _424  and  _425
REMARK  177  A    between atoms: _424  and  _427
REMARK  178  A    between atoms: _427  and  _428
REMARK  179  A    between atoms: _432  and  _433
REMARK  180  A    between atoms: _438  and  _440
REMARK  181  A    between atoms: _440  and  _441
REMARK  182  A    between atoms: _440  and  _443
REMARK  183  A    between atoms: _443  and  _444
REMARK  184  A    between atoms: _444  and  _445
REMARK  185  A    between atoms: _448  and  _450
REMARK  186  A    between atoms: _450  and  _451
REMARK  187  A    between atoms: _450  and  _453
REMARK  188  A    between atoms: _453  and  _454
REMARK  189  A    between atoms: _457  and  _459
REMARK  190  A    between atoms: _459  and  _460
REMARK  191  A    between atoms: _459  and  _462
REMARK  192  A    between atoms: _462  and  _463
REMARK  193  A    between atoms: _468  and  _470
REMARK  194  A    between atoms: _470  and  _471
REMARK  195  A    between atoms: _470  and  _473
REMARK  196  A    between atoms: _473  and  _474
REMARK  197  A    between atoms: _474  and  _475
REMARK  198  A    between atoms: _475  and  _476
REMARK  199  A    between atoms: _476  and  _477
REMARK  200  A    between atoms: _481  and  _483
REMARK  201  A    between atoms: _483  and  _484
REMARK  202  A    between atoms: _483  and  _486
REMARK  203  A    between atoms: _486  and  _487
REMARK                            x       y       z     vdW  Elec       q    Type
REMARK                         _______ _______ _______ _____ _____    ______ ____
ROOT
ATOM      1  C   PRO A   4      17.051  41.733  45.475  0.00  0.00    +0.241 C 
ATOM      2  O   PRO A   4      17.879  42.481  45.980  0.00  0.00    -0.273 OA
ATOM      3  N   GLU A   5      17.360  40.545  44.953  0.00  0.00    -0.297 N 
ATOM      4  H   GLU A   5      16.658  39.998  44.415  0.00  0.00    +0.150 HD
ENDROOT
BRANCH   1   7
ATOM      5  C   ILE A   3      15.587  42.457  42.955  0.00  0.00    +0.244 C 
ATOM      6  N   PRO A   4      14.989  41.974  44.048  0.00  0.00    -0.272 N 
ATOM      7  CA  PRO A   4      15.585  42.176  45.362  0.00  0.00    +0.152 C 
ATOM      8  CB  PRO A   4      14.648  41.380  46.291  0.00  0.00    +0.031 C 
ATOM      9  CG  PRO A   4      13.323  41.514  45.614  0.00  0.00    +0.024 C 
ATOM     10  CD  PRO A   4      13.634  41.397  44.157  0.00  0.00    +0.094 C 
ATOM     11  O   ILE A   3      16.687  42.996  43.034  0.00  0.00    -0.273 OA
BRANCH   5  12
ATOM     12  CA  ILE A   3      14.861  42.288  41.624  0.00  0.00    +0.149 C 
BRANCH  12  15
ATOM     13  C   ASP A   2      15.233  44.534  40.775  0.00  0.00    +0.241 C 
ATOM     14  O   ASP A   2      14.473  45.057  41.591  0.00  0.00    -0.273 OA
ATOM     15  N   ILE A   3      15.434  43.234  40.674  0.00  0.00    -0.297 N 
ATOM     16  H   ILE A   3      16.019  42.873  39.893  0.00  0.00    +0.150 HD
BRANCH  13  17
ATOM     17  CA  ASP A   2      16.049  45.396  39.787  0.00  0.00    +0.160 C 
BRANCH  17  19
ATOM     18  C   ALA A   1      15.257  47.619  39.214  0.00  0.00    +0.238 C 
ATOM     19  N   ASP A   2      15.873  46.795  40.046  0.00  0.00    -0.297 N 
ATOM     20  H   ASP A   2      16.249  47.183  40.935  0.00  0.00    +0.150 HD
ATOM     21  O   ALA A   1      14.745  47.266  38.165  0.00  0.00    -0.274 OA
BRANCH  18  22
ATOM     22  CA  ALA A   1      15.211  49.101  39.645  0.00  0.00    +0.145 C 
ATOM     23  CB  ALA A   1      14.802  49.994  38.507  0.00  0.00    +0.028 C 
BRANCH  22  24
ATOM     24  N   ALA A   1      16.492  49.533  40.212  0.00  0.00    -0.238 NA
ATOM     25  H   ALA A   1      17.376  49.093  39.886  0.00  0.00    +0.142 HD
ENDBRANCH  22  24
ENDBRANCH  18  22
ENDBRANCH  17  19
BRANCH  17  26
ATOM     26  CB  ASP A   2      17.552  45.042  39.753  0.00  0.00    +0.143 C 
BRANCH  26  27
ATOM     27  CG  ASP A   2      17.946  44.038  38.754  0.00  0.00    +0.367 C 
ATOM     28  OD2 ASP A   2      17.332  42.968  38.666  0.00  0.00    -0.246 OA
ATOM     29  OD1 ASP A   2      18.911  44.381  37.976  0.00  0.00    -0.246 OA
ENDBRANCH  26  27
ENDBRANCH  17  26
ENDBRANCH  13  17
ENDBRANCH  12  15
BRANCH  12  30
ATOM     30  CB  ILE A   3      14.971  40.840  41.098  0.00  0.00    +0.027 C 
ATOM     31  CG2 ILE A   3      14.342  40.719  39.723  0.00  0.00    +0.002 C 
BRANCH  30  32
ATOM     32  CG1 ILE A   3      16.423  40.323  41.129  0.00  0.00    +0.002 C 
ATOM     33  CD1 ILE A   3      16.542  38.865  40.754  0.00  0.00    +0.000 C 
ENDBRANCH  30  32
ENDBRANCH  12  30
ENDBRANCH   5  12
ENDBRANCH   1   7
BRANCH   3  34
ATOM     34  CA  GLU A   5      18.717  40.032  45.160  0.00  0.00    +0.149 C 
BRANCH  34  35
ATOM     35  C   GLU A   5      19.745  40.888  44.477  0.00  0.00    +0.241 C 
ATOM     36  O   GLU A   5      20.841  41.127  45.001  0.00  0.00    -0.273 OA
ATOM     37  N   THR A   6      19.420  41.336  43.255  0.00  0.00    -0.295 N 
ATOM     38  H   THR A   6      18.504  41.083  42.832  0.00  0.00    +0.150 HD
BRANCH  37  39
ATOM     39  CA  THR A   6      20.362  42.183  42.520  0.00  0.00    +0.176 C 
BRANCH  39  40
ATOM     40  C   THR A   6      20.433  43.555  43.123  0.00  0.00    +0.243 C 
ATOM     41  N   ASN A   7      19.291  44.089  43.580  0.00  0.00    -0.298 N 
ATOM     42  H   ASN A   7      18.391  43.586  43.441  0.00  0.00    +0.150 HD
ATOM     43  O   THR A   6      21.504  44.154  43.219  0.00  0.00    -0.273 OA
BRANCH  41  44
ATOM     44  CA  ASN A   7      19.306  45.371  44.271  0.00  0.00    +0.146 C 
BRANCH  44  45
ATOM     45  C   ASN A   7      20.245  45.355  45.462  0.00  0.00    +0.227 C 
ATOM     46  O   ASN A   7      20.945  46.322  45.705  0.00  0.00    -0.286 OA
ENDBRANCH  44  45
BRANCH  44  47
ATOM     47  CB  ASN A   7      17.906  45.732  44.755  0.00  0.00    +0.112 C 
BRANCH  47  48
ATOM     48  CG  ASN A   7      17.031  46.311  43.686  0.00  0.00    +0.222 C 
ATOM     49  ND2 ASN A   7      15.872  46.837  44.099  0.00  0.00    -0.329 N 
ATOM     50 HD21 ASN A   7      15.621  46.815  45.108  0.00  0.00    +0.145 HD
ATOM     51 HD22 ASN A   7      15.222  47.268  43.411  0.00  0.00    +0.145 HD
ATOM     52  OD1 ASN A   7      17.371  46.314  42.501  0.00  0.00    -0.275 OA
ENDBRANCH  47  48
ENDBRANCH  44  47
ENDBRANCH  41  44
ENDBRANCH  39  40
BRANCH  39  53
ATOM     53  CB  THR A   6      19.971  42.238  41.038  0.00  0.00    +0.137 C 
ATOM     54  CG2 THR A   6      20.877  43.131  40.241  0.00  0.00    +0.034 C 
BRANCH  53  55
ATOM     55  OG1 THR A   6      19.966  40.889  40.552  0.00  0.00    -0.382 OA
ATOM     56  HG1 THR A   6      19.717  40.886  39.594  0.00  0.00    +0.210 HD
ENDBRANCH  53  55
ENDBRANCH  39  53
ENDBRANCH  37  39
ENDBRANCH  34  35
BRANCH  34  57
ATOM     57  CB  GLU A   5      18.797  38.584  44.584  0.00  0.00    +0.041 C 
BRANCH  57  58
ATOM     58  CG  GLU A   5      18.072  37.562  45.410  0.00  0.00    +0.116 C 
BRANCH  58  59
ATOM     59  CD  GLU A   5      16.583  37.479  45.017  0.00  0.00    +0.365 C 
ATOM     60  OE2 GLU A   5      16.065  36.410  45.419  0.00  0.00    -0.246 OA
ATOM     61  OE1 GLU A   5      15.879  38.301  44.421  0.00  0.00    -0.246 OA
ENDBRANCH  58  59
ENDBRANCH  57  58
ENDBRANCH  34  57
ENDBRANCH   3  34
TORSDOF 24
REMARK  Name = ../refined-set-2016/3w07/3w07_pocket.pdb
REMARK  203 active torsions:
REMARK  status: ('A' for Active; 'I' for Inactive)
REMARK    1  A    between atoms: _1  and  _3
REMARK    2  A    between atoms: _3  and  _4
REMARK    3  A    between atoms: _3  and  _6
REMARK    4  A    between atoms: _6  and  _7
REMARK    5  A    between atoms: _10  and  _12
REMARK    6  A    between atoms: _12  and  _13
REMARK    7  A    between atoms: _12  and  _15
REMARK    8  A    between atoms: _15  and  _16
REMARK    9  A    between atoms: _19  and  _21
REMARK   10  A    between atoms: _21  and  _22
REMARK   11  A    between atoms: _25  and  _27
REMARK   12  A    between atoms: _27  and  _28
REMARK   13  A    between atoms: _27  and  _30
REMARK   14  A    between atoms: _30  and  _31
REMARK   15  A    between atoms: _31  and  _32
REMARK   16  A    between atoms: _34  and  _36
REMARK   17  A    between atoms: _36  and  _37
REMARK   18  A    between atoms: _36  and  _39
REMARK   19  A    between atoms: _39  and  _40
REMARK   20  A    between atoms: _43  and  _45
REMARK   21  A    between atoms: _45  and  _46
REMARK   22  A    between atoms: _45  and  _48
REMARK   23  A    between atoms: _48  and  _49
REMARK   24  A    between atoms: _49  and  _50
REMARK   25  A    between atoms: _50  and  _51
REMARK   26  A    between atoms: _51  and  _52
REMARK   27  A    between atoms: _56  and  _58
REMARK   28  A    between atoms: _58  and  _59
REMARK   29  A    between atoms: _58  and  _61
REMARK   30  A    between atoms: _61  and  _62
REMARK   31  A    between atoms: _65  and  _67
REMARK   32  A    between atoms: _67  and  _68
REMARK   33  A    between atoms: _70  and  _72
REMARK   34  A    between atoms: _72  and  _73
REMARK   35  A    between atoms: _72  and  _75
REMARK   36  A    between atoms: _75  and  _76
REMARK   37  A    between atoms: _81  and  _82
REMARK   38  A    between atoms: _85  and  _86
REMARK   39  A    between atoms: _91  and  _93
REMARK   40  A    between atoms: _93  and  _94
REMARK   41  A    between atoms: _93  and  _96
REMARK   42  A    between atoms: _96  and  _97
REMARK   43  A    between atoms: _100  and  _102
REMARK   44  A    between atoms: _102  and  _103
REMARK   45  A    between atoms: _102  and  _105
REMARK   46  A    between atoms: _105  and  _106
REMARK   47  A    between atoms: _109  and  _111
REMARK   48  A    between atoms: _111  and  _112
REMARK   49  A    between atoms: _111  and  _114
REMARK   50  A    between atoms: _114  and  _115
REMARK   51  A    between atoms: _115  and  _116
REMARK   52  A    between atoms: _116  and  _117
REMARK   53  A    between atoms: _117  and  _118
REMARK   54  A    between atoms: _122  and  _124
REMARK   55  A    between atoms: _124  and  _125
REMARK   56  A    between atoms: _124  and  _127
REMARK   57  A    between atoms: _127  and  _128
REMARK   58  A    between atoms: _131  and  _133
REMARK   59  A    between atoms: _133  and  _134
REMARK   60  A    between atoms: _133  and  _136
REMARK   61  A    between atoms: _136  and  _137
REMARK   62  A    between atoms: _142  and  _144
REMARK   63  A    between atoms: _144  and  _145
REMARK   64  A    between atoms: _144  and  _147
REMARK   65  A    between atoms: _147  and  _148
REMARK   66  A    between atoms: _151  and  _153
REMARK   67  A    between atoms: _153  and  _154
REMARK   68  A    between atoms: _153  and  _156
REMARK   69  A    between atoms: _156  and  _157
REMARK   70  A    between atoms: _160  and  _162
REMARK   71  A    between atoms: _162  and  _163
REMARK   72  A    between atoms: _162  and  _165
REMARK   73  A    between atoms: _165  and  _166
REMARK   74  A    between atoms: _166  and  _167
REMARK   75  A    between atoms: _170  and  _172
REMARK   76  A    between atoms: _172  and  _173
REMARK   77  A    between atoms: _172  and  _175
REMARK   78  A    between atoms: _175  and  _176
REMARK   79  A    between atoms: _176  and  _177
REMARK   80  A    between atoms: _179  and  _181
REMARK   81  A    between atoms: _181  and  _182
REMARK   82  A    between atoms: _181  and  _184
REMARK   83  A    between atoms: _184  and  _185
REMARK   84  A    between atoms: _187  and  _189
REMARK   85  A    between atoms: _189  and  _190
REMARK   86  A    between atoms: _189  and  _192
REMARK   87  A    between atoms: _192  and  _193
REMARK   88  A    between atoms: _198  and  _200
REMARK   89  A    between atoms: _200  and  _201
REMARK   90  A    between atoms: _204  and  _206
REMARK   91  A    between atoms: _206  and  _207
REMARK   92  A    between atoms: _206  and  _209
REMARK   93  A    between atoms: _209  and  _210
REMARK   94  A    between atoms: _213  and  _215
REMARK   95  A    between atoms: _215  and  _216
REMARK   96  A    between atoms: _215  and  _218
REMARK   97  A    between atoms: _221  and  _223
REMARK   98  A    between atoms: _223  and  _224
REMARK   99  A    between atoms: _227  and  _228
REMARK  100  A    between atoms: _233  and  _235
REMARK  101  A    between atoms: _235  and  _236
REMARK  102  A    between atoms: _235  and  _238
REMARK  103  A    between atoms: _238  and  _239
REMARK  104  A    between atoms: _241  and  _243
REMARK  105  A    between atoms: _243  and  _244
REMARK  106  A    between atoms: _243  and  _246
REMARK  107  A    between atoms: _246  and  _247
REMARK  108  A    between atoms: _250  and  _252
REMARK  109  A    between atoms: _252  and  _253
REMARK  110  A    between atoms: _252  and  _255
REMARK  111  A    between atoms: _255  and  _256
REMARK  112  A    between atoms: _256  and  _257
REMARK  113  A    between atoms: _257  and  _258
REMARK  114  A    between atoms: _267  and  _269
REMARK  115  A    between atoms: _269  and  _270
REMARK  116  A    between atoms: _269  and  _272
REMARK  117  A    between atoms: _272  and  _273
REMARK  118  A    between atoms: _276  and  _277
REMARK  119  A    between atoms: _282  and  _284
REMARK  120  A    between atoms: _284  and  _285
REMARK  121  A    between atoms: _287  and  _289
REMARK  122  A    between atoms: _289  and  _290
REMARK  123  A    between atoms: _289  and  _292
REMARK  124  A    between atoms: _295  and  _297
REMARK  125  A    between atoms: _297  and  _298
REMARK  126  A    between atoms: _300  and  _302
REMARK  127  A    between atoms: _302  and  _303
REMARK  128  A    between atoms: _306  and  _308
REMARK  129  A    between atoms: _308  and  _309
REMARK  130  A    between atoms: _308  and  _311
REMARK  131  A    between atoms: _311  and  _312
REMARK  132  A    between atoms: _312  and  _313
REMARK  133  A    between atoms: _318  and  _320
REMARK  134  A    between atoms: _320  and  _321
REMARK  135  A    between atoms: _323  and  _325
REMARK  136  A    between atoms: _325  and  _326
REMARK  137  A    between atoms: _328  and  _330
REMARK  138  A    between atoms: _330  and  _331
REMARK  139  A    between atoms: _330  and  _333
REMARK  140  A    between atoms: _333  and  _334
REMARK  141  A    between atoms: _337  and  _339
REMARK  142  A    between atoms: _339  and  _340
REMARK  143  A    between atoms: _339  and  _342
REMARK  144  A    between atoms: _345  and  _347
REMARK  145  A    between atoms: _347  and  _348
REMARK  146  A    between atoms: _350  and  _352
REMARK  147  A    between atoms: _352  and  _353
REMARK  148  A    between atoms: _352  and  _355
REMARK  149  A    between atoms: _355  and  _356
REMARK  150  A    between atoms: _356  and  _357
REMARK  151  A    between atoms: _357  and  _358
REMARK  152  A    between atoms: _367  and  _369
REMARK  153  A    between atoms: _369  and  _370
REMARK  154  A    between atoms: _369  and  _372
REMARK  155  A    between atoms: _372  and  _373
REMARK  156  A    between atoms: _375  and  _377
REMARK  157  A    between atoms: _377  and  _378
REMARK  158  A    between atoms: _377  and  _380
REMARK  159  A    between atoms: _380  and  _381
REMARK  160  A    between atoms: _384  and  _386
REMARK  161  A    between atoms: _386  and  _387
REMARK  162  A    between atoms: _386  and  _389
REMARK  163  A    between atoms: _389  and  _390
REMARK  164  A    between atoms: _395  and  _396
REMARK  165  A    between atoms: _398  and  _400
REMARK  166  A    between atoms: _400  and  _401
REMARK  167  A    between atoms: _400  and  _403
REMARK  168  A    between atoms: _403  and  _404
REMARK  169  A    between atoms: _407  and  _409
REMARK  170  A    between atoms: _409  and  _410
REMARK  171  A    between atoms: _413  and  _415
REMARK  172  A    between atoms: _415  and  _416
REMARK  173  A    between atoms: _415  and  _418
REMARK  174  A    between atoms: _418  and  _419
REMARK  175  A    between atoms: _422  and  _424
REMARK  176  A    between atoms: _424  and  _425
REMARK  177  A    between atoms: _424  and  _427
REMARK  178  A    between atoms: _427  and  _428
REMARK  179  A    between atoms: _432  and  _433
REMARK  180  A    between atoms: _438  and  _440
REMARK  181  A    between atoms: _440  and  _441
REMARK  182  A    between atoms: _440  and  _443
REMARK  183  A    between atoms: _443  and  _444
REMARK  184  A    between atoms: _444  and  _445
REMARK  185  A    between atoms: _448  and  _450
REMARK  186  A    between atoms: _450  and  _451
REMARK  187  A    between atoms: _450  and  _453
REMARK  188  A    between atoms: _453  and  _454
REMARK  189  A    between atoms: _457  and  _459
REMARK  190  A    between atoms: _459  and  _460
REMARK  191  A    between atoms: _459  and  _462
REMARK  192  A    between atoms: _462  and  _463
REMARK  193  A    between atoms: _468  and  _470
REMARK  194  A    between atoms: _470  and  _471
REMARK  195  A    between atoms: _470  and  _473
REMARK  196  A    between atoms: _473  and  _474
REMARK  197  A    between atoms: _474  and  _475
REMARK  198  A    between atoms: _475  and  _476
REMARK  199  A    between atoms: _476  and  _477
REMARK  200  A    between atoms: _481  and  _483
REMARK  201  A    between atoms: _483  and  _484
REMARK  202  A    between atoms: _483  and  _486
REMARK  203  A    between atoms: _486  and  _487
REMARK                            x       y       z     vdW  Elec       q    Type
REMARK                         _______ _______ _______ _____ _____    ______ ____
ROOT
ATOM      1  CA  LYS A   1      24.343  43.742  45.333  0.00  0.00    +0.145 C 
ENDROOT
BRANCH   1   2
ATOM      2  C   LYS A   1      24.702  45.129  44.873  0.00  0.00    +0.238 C 
ATOM      3  O   LYS A   1      25.790  45.624  45.145  0.00  0.00    -0.274 OA
ATOM      4  N   ILE A   2      23.774  45.782  44.148  0.00  0.00    -0.298 N 
ATOM      5  H   ILE A   2      22.874  45.313  43.920  0.00  0.00    +0.150 HD
BRANCH   4   6
ATOM      6  CA  ILE A   2      24.020  47.139  43.680  0.00  0.00    +0.137 C 
BRANCH   6   7
ATOM      7  C   ILE A   2      24.227  48.079  44.832  0.00  0.00    +0.227 C 
ATOM      8  O   ILE A   2      25.152  48.900  44.863  0.00  0.00    -0.286 OA
ENDBRANCH   6   7
BRANCH   6   9
ATOM      9  CB  ILE A   2      22.888  47.608  42.750  0.00  0.00    +0.026 C 
ATOM     10  CG2 ILE A   2      23.026  49.080  42.438  0.00  0.00    +0.002 C 
BRANCH   9  11
ATOM     11  CG1 ILE A   2      22.886  46.750  41.473  0.00  0.00    +0.002 C 
ATOM     12  CD1 ILE A   2      21.637  46.973  40.603  0.00  0.00    +0.000 C 
ENDBRANCH   9  11
ENDBRANCH   6   9
ENDBRANCH   4   6
ENDBRANCH   1   2
BRANCH   1  13
ATOM     13  N   LYS A   1      22.969  43.671  45.846  0.00  0.00    -0.238 NA
ATOM     14  H   LYS A   1      22.264  43.076  45.366  0.00  0.00    +0.142 HD
ENDBRANCH   1  13
BRANCH   1  15
ATOM     15  CB  LYS A   1      24.506  42.734  44.192  0.00  0.00    +0.026 C 
BRANCH  15  16
ATOM     16  CG  LYS A   1      24.466  41.284  44.632  0.00  0.00    -0.000 C 
BRANCH  16  17
ATOM     17  CD  LYS A   1      24.625  40.330  43.461  0.00  0.00    -0.024 C 
BRANCH  17  18
ATOM     18  CE  LYS A   1      24.724  38.909  43.916  0.00  0.00    -0.086 C 
BRANCH  18  19
ATOM     19  NZ  LYS A   1      25.151  37.962  42.870  0.00  0.00    +0.380 N 
ATOM     20  HZ1 LYS A   1      25.193  37.003  43.269  0.00  0.00    -0.089 HD
ATOM     21  HZ2 LYS A   1      26.092  38.235  42.520  0.00  0.00    -0.089 HD
ATOM     22  HZ3 LYS A   1      24.468  37.983  42.086  0.00  0.00    -0.089 HD
ENDBRANCH  18  19
ENDBRANCH  17  18
ENDBRANCH  16  17
ENDBRANCH  15  16
ENDBRANCH   1  15
TORSDOF 11
REMARK  Name = ../refined-set-2016/3w07/3w07_pocket.pdb
REMARK  203 active torsions:
REMARK  status: ('A' for Active; 'I' for Inactive)
REMARK    1  A    between atoms: _1  and  _3
REMARK    2  A    between atoms: _3  and  _4
REMARK    3  A    between atoms: _3  and  _6
REMARK    4  A    between atoms: _6  and  _7
REMARK    5  A    between atoms: _10  and  _12
REMARK    6  A    between atoms: _12  and  _13
REMARK    7  A    between atoms: _12  and  _15
REMARK    8  A    between atoms: _15  and  _16
REMARK    9  A    between atoms: _19  and  _21
REMARK   10  A    between atoms: _21  and  _22
REMARK   11  A    between atoms: _25  and  _27
REMARK   12  A    between atoms: _27  and  _28
REMARK   13  A    between atoms: _27  and  _30
REMARK   14  A    between atoms: _30  and  _31
REMARK   15  A    between atoms: _31  and  _32
REMARK   16  A    between atoms: _34  and  _36
REMARK   17  A    between atoms: _36  and  _37
REMARK   18  A    between atoms: _36  and  _39
REMARK   19  A    between atoms: _39  and  _40
REMARK   20  A    between atoms: _43  and  _45
REMARK   21  A    between atoms: _45  and  _46
REMARK   22  A    between atoms: _45  and  _48
REMARK   23  A    between atoms: _48  and  _49
REMARK   24  A    between atoms: _49  and  _50
REMARK   25  A    between atoms: _50  and  _51
REMARK   26  A    between atoms: _51  and  _52
REMARK   27  A    between atoms: _56  and  _58
REMARK   28  A    between atoms: _58  and  _59
REMARK   29  A    between atoms: _58  and  _61
REMARK   30  A    between atoms: _61  and  _62
REMARK   31  A    between atoms: _65  and  _67
REMARK   32  A    between atoms: _67  and  _68
REMARK   33  A    between atoms: _70  and  _72
REMARK   34  A    between atoms: _72  and  _73
REMARK   35  A    between atoms: _72  and  _75
REMARK   36  A    between atoms: _75  and  _76
REMARK   37  A    between atoms: _81  and  _82
REMARK   38  A    between atoms: _85  and  _86
REMARK   39  A    between atoms: _91  and  _93
REMARK   40  A    between atoms: _93  and  _94
REMARK   41  A    between atoms: _93  and  _96
REMARK   42  A    between atoms: _96  and  _97
REMARK   43  A    between atoms: _100  and  _102
REMARK   44  A    between atoms: _102  and  _103
REMARK   45  A    between atoms: _102  and  _105
REMARK   46  A    between atoms: _105  and  _106
REMARK   47  A    between atoms: _109  and  _111
REMARK   48  A    between atoms: _111  and  _112
REMARK   49  A    between atoms: _111  and  _114
REMARK   50  A    between atoms: _114  and  _115
REMARK   51  A    between atoms: _115  and  _116
REMARK   52  A    between atoms: _116  and  _117
REMARK   53  A    between atoms: _117  and  _118
REMARK   54  A    between atoms: _122  and  _124
REMARK   55  A    between atoms: _124  and  _125
REMARK   56  A    between atoms: _124  and  _127
REMARK   57  A    between atoms: _127  and  _128
REMARK   58  A    between atoms: _131  and  _133
REMARK   59  A    between atoms: _133  and  _134
REMARK   60  A    between atoms: _133  and  _136
REMARK   61  A    between atoms: _136  and  _137
REMARK   62  A    between atoms: _142  and  _144
REMARK   63  A    between atoms: _144  and  _145
REMARK   64  A    between atoms: _144  and  _147
REMARK   65  A    between atoms: _147  and  _148
REMARK   66  A    between atoms: _151  and  _153
REMARK   67  A    between atoms: _153  and  _154
REMARK   68  A    between atoms: _153  and  _156
REMARK   69  A    between atoms: _156  and  _157
REMARK   70  A    between atoms: _160  and  _162
REMARK   71  A    between atoms: _162  and  _163
REMARK   72  A    between atoms: _162  and  _165
REMARK   73  A    between atoms: _165  and  _166
REMARK   74  A    between atoms: _166  and  _167
REMARK   75  A    between atoms: _170  and  _172
REMARK   76  A    between atoms: _172  and  _173
REMARK   77  A    between atoms: _172  and  _175
REMARK   78  A    between atoms: _175  and  _176
REMARK   79  A    between atoms: _176  and  _177
REMARK   80  A    between atoms: _179  and  _181
REMARK   81  A    between atoms: _181  and  _182
REMARK   82  A    between atoms: _181  and  _184
REMARK   83  A    between atoms: _184  and  _185
REMARK   84  A    between atoms: _187  and  _189
REMARK   85  A    between atoms: _189  and  _190
REMARK   86  A    between atoms: _189  and  _192
REMARK   87  A    between atoms: _192  and  _193
REMARK   88  A    between atoms: _198  and  _200
REMARK   89  A    between atoms: _200  and  _201
REMARK   90  A    between atoms: _204  and  _206
REMARK   91  A    between atoms: _206  and  _207
REMARK   92  A    between atoms: _206  and  _209
REMARK   93  A    between atoms: _209  and  _210
REMARK   94  A    between atoms: _213  and  _215
REMARK   95  A    between atoms: _215  and  _216
REMARK   96  A    between atoms: _215  and  _218
REMARK   97  A    between atoms: _221  and  _223
REMARK   98  A    between atoms: _223  and  _224
REMARK   99  A    between atoms: _227  and  _228
REMARK  100  A    between atoms: _233  and  _235
REMARK  101  A    between atoms: _235  and  _236
REMARK  102  A    between atoms: _235  and  _238
REMARK  103  A    between atoms: _238  and  _239
REMARK  104  A    between atoms: _241  and  _243
REMARK  105  A    between atoms: _243  and  _244
REMARK  106  A    between atoms: _243  and  _246
REMARK  107  A    between atoms: _246  and  _247
REMARK  108  A    between atoms: _250  and  _252
REMARK  109  A    between atoms: _252  and  _253
REMARK  110  A    between atoms: _252  and  _255
REMARK  111  A    between atoms: _255  and  _256
REMARK  112  A    between atoms: _256  and  _257
REMARK  113  A    between atoms: _257  and  _258
REMARK  114  A    between atoms: _267  and  _269
REMARK  115  A    between atoms: _269  and  _270
REMARK  116  A    between atoms: _269  and  _272
REMARK  117  A    between atoms: _272  and  _273
REMARK  118  A    between atoms: _276  and  _277
REMARK  119  A    between atoms: _282  and  _284
REMARK  120  A    between atoms: _284  and  _285
REMARK  121  A    between atoms: _287  and  _289
REMARK  122  A    between atoms: _289  and  _290
REMARK  123  A    between atoms: _289  and  _292
REMARK  124  A    between atoms: _295  and  _297
REMARK  125  A    between atoms: _297  and  _298
REMARK  126  A    between atoms: _300  and  _302
REMARK  127  A    between atoms: _302  and  _303
REMARK  128  A    between atoms: _306  and  _308
REMARK  129  A    between atoms: _308  and  _309
REMARK  130  A    between atoms: _308  and  _311
REMARK  131  A    between atoms: _311  and  _312
REMARK  132  A    between atoms: _312  and  _313
REMARK  133  A    between atoms: _318  and  _320
REMARK  134  A    between atoms: _320  and  _321
REMARK  135  A    between atoms: _323  and  _325
REMARK  136  A    between atoms: _325  and  _326
REMARK  137  A    between atoms: _328  and  _330
REMARK  138  A    between atoms: _330  and  _331
REMARK  139  A    between atoms: _330  and  _333
REMARK  140  A    between atoms: _333  and  _334
REMARK  141  A    between atoms: _337  and  _339
REMARK  142  A    between atoms: _339  and  _340
REMARK  143  A    between atoms: _339  and  _342
REMARK  144  A    between atoms: _345  and  _347
REMARK  145  A    between atoms: _347  and  _348
REMARK  146  A    between atoms: _350  and  _352
REMARK  147  A    between atoms: _352  and  _353
REMARK  148  A    between atoms: _352  and  _355
REMARK  149  A    between atoms: _355  and  _356
REMARK  150  A    between atoms: _356  and  _357
REMARK  151  A    between atoms: _357  and  _358
REMARK  152  A    between atoms: _367  and  _369
REMARK  153  A    between atoms: _369  and  _370
REMARK  154  A    between atoms: _369  and  _372
REMARK  155  A    between atoms: _372  and  _373
REMARK  156  A    between atoms: _375  and  _377
REMARK  157  A    between atoms: _377  and  _378
REMARK  158  A    between atoms: _377  and  _380
REMARK  159  A    between atoms: _380  and  _381
REMARK  160  A    between atoms: _384  and  _386
REMARK  161  A    between atoms: _386  and  _387
REMARK  162  A    between atoms: _386  and  _389
REMARK  163  A    between atoms: _389  and  _390
REMARK  164  A    between atoms: _395  and  _396
REMARK  165  A    between atoms: _398  and  _400
REMARK  166  A    between atoms: _400  and  _401
REMARK  167  A    between atoms: _400  and  _403
REMARK  168  A    between atoms: _403  and  _404
REMARK  169  A    between atoms: _407  and  _409
REMARK  170  A    between atoms: _409  and  _410
REMARK  171  A    between atoms: _413  and  _415
REMARK  172  A    between atoms: _415  and  _416
REMARK  173  A    between atoms: _415  and  _418
REMARK  174  A    between atoms: _418  and  _419
REMARK  175  A    between atoms: _422  and  _424
REMARK  176  A    between atoms: _424  and  _425
REMARK  177  A    between atoms: _424  and  _427
REMARK  178  A    between atoms: _427  and  _428
REMARK  179  A    between atoms: _432  and  _433
REMARK  180  A    between atoms: _438  and  _440
REMARK  181  A    between atoms: _440  and  _441
REMARK  182  A    between atoms: _440  and  _443
REMARK  183  A    between atoms: _443  and  _444
REMARK  184  A    between atoms: _444  and  _445
REMARK  185  A    between atoms: _448  and  _450
REMARK  186  A    between atoms: _450  and  _451
REMARK  187  A    between atoms: _450  and  _453
REMARK  188  A    between atoms: _453  and  _454
REMARK  189  A    between atoms: _457  and  _459
REMARK  190  A    between atoms: _459  and  _460
REMARK  191  A    between atoms: _459  and  _462
REMARK  192  A    between atoms: _462  and  _463
REMARK  193  A    between atoms: _468  and  _470
REMARK  194  A    between atoms: _470  and  _471
REMARK  195  A    between atoms: _470  and  _473
REMARK  196  A    between atoms: _473  and  _474
REMARK  197  A    between atoms: _474  and  _475
REMARK  198  A    between atoms: _475  and  _476
REMARK  199  A    between atoms: _476  and  _477
REMARK  200  A    between atoms: _481  and  _483
REMARK  201  A    between atoms: _483  and  _484
REMARK  202  A    between atoms: _483  and  _486
REMARK  203  A    between atoms: _486  and  _487
REMARK                            x       y       z     vdW  Elec       q    Type
REMARK                         _______ _______ _______ _____ _____    ______ ____
ROOT
ATOM      1  O   HOH     1      18.901  49.025  38.379  0.00  0.00    +0.000 OA
ENDROOT
TORSDOF 0
REMARK  Name = ../refined-set-2016/3w07/3w07_pocket.pdb
REMARK  203 active torsions:
REMARK  status: ('A' for Active; 'I' for Inactive)
REMARK    1  A    between atoms: _1  and  _3
REMARK    2  A    between atoms: _3  and  _4
REMARK    3  A    between atoms: _3  and  _6
REMARK    4  A    between atoms: _6  and  _7
REMARK    5  A    between atoms: _10  and  _12
REMARK    6  A    between atoms: _12  and  _13
REMARK    7  A    between atoms: _12  and  _15
REMARK    8  A    between atoms: _15  and  _16
REMARK    9  A    between atoms: _19  and  _21
REMARK   10  A    between atoms: _21  and  _22
REMARK   11  A    between atoms: _25  and  _27
REMARK   12  A    between atoms: _27  and  _28
REMARK   13  A    between atoms: _27  and  _30
REMARK   14  A    between atoms: _30  and  _31
REMARK   15  A    between atoms: _31  and  _32
REMARK   16  A    between atoms: _34  and  _36
REMARK   17  A    between atoms: _36  and  _37
REMARK   18  A    between atoms: _36  and  _39
REMARK   19  A    between atoms: _39  and  _40
REMARK   20  A    between atoms: _43  and  _45
REMARK   21  A    between atoms: _45  and  _46
REMARK   22  A    between atoms: _45  and  _48
REMARK   23  A    between atoms: _48  and  _49
REMARK   24  A    between atoms: _49  and  _50
REMARK   25  A    between atoms: _50  and  _51
REMARK   26  A    between atoms: _51  and  _52
REMARK   27  A    between atoms: _56  and  _58
REMARK   28  A    between atoms: _58  and  _59
REMARK   29  A    between atoms: _58  and  _61
REMARK   30  A    between atoms: _61  and  _62
REMARK   31  A    between atoms: _65  and  _67
REMARK   32  A    between atoms: _67  and  _68
REMARK   33  A    between atoms: _70  and  _72
REMARK   34  A    between atoms: _72  and  _73
REMARK   35  A    between atoms: _72  and  _75
REMARK   36  A    between atoms: _75  and  _76
REMARK   37  A    between atoms: _81  and  _82
REMARK   38  A    between atoms: _85  and  _86
REMARK   39  A    between atoms: _91  and  _93
REMARK   40  A    between atoms: _93  and  _94
REMARK   41  A    between atoms: _93  and  _96
REMARK   42  A    between atoms: _96  and  _97
REMARK   43  A    between atoms: _100  and  _102
REMARK   44  A    between atoms: _102  and  _103
REMARK   45  A    between atoms: _102  and  _105
REMARK   46  A    between atoms: _105  and  _106
REMARK   47  A    between atoms: _109  and  _111
REMARK   48  A    between atoms: _111  and  _112
REMARK   49  A    between atoms: _111  and  _114
REMARK   50  A    between atoms: _114  and  _115
REMARK   51  A    between atoms: _115  and  _116
REMARK   52  A    between atoms: _116  and  _117
REMARK   53  A    between atoms: _117  and  _118
REMARK   54  A    between atoms: _122  and  _124
REMARK   55  A    between atoms: _124  and  _125
REMARK   56  A    between atoms: _124  and  _127
REMARK   57  A    between atoms: _127  and  _128
REMARK   58  A    between atoms: _131  and  _133
REMARK   59  A    between atoms: _133  and  _134
REMARK   60  A    between atoms: _133  and  _136
REMARK   61  A    between atoms: _136  and  _137
REMARK   62  A    between atoms: _142  and  _144
REMARK   63  A    between atoms: _144  and  _145
REMARK   64  A    between atoms: _144  and  _147
REMARK   65  A    between atoms: _147  and  _148
REMARK   66  A    between atoms: _151  and  _153
REMARK   67  A    between atoms: _153  and  _154
REMARK   68  A    between atoms: _153  and  _156
REMARK   69  A    between atoms: _156  and  _157
REMARK   70  A    between atoms: _160  and  _162
REMARK   71  A    between atoms: _162  and  _163
REMARK   72  A    between atoms: _162  and  _165
REMARK   73  A    between atoms: _165  and  _166
REMARK   74  A    between atoms: _166  and  _167
REMARK   75  A    between atoms: _170  and  _172
REMARK   76  A    between atoms: _172  and  _173
REMARK   77  A    between atoms: _172  and  _175
REMARK   78  A    between atoms: _175  and  _176
REMARK   79  A    between atoms: _176  and  _177
REMARK   80  A    between atoms: _179  and  _181
REMARK   81  A    between atoms: _181  and  _182
REMARK   82  A    between atoms: _181  and  _184
REMARK   83  A    between atoms: _184  and  _185
REMARK   84  A    between atoms: _187  and  _189
REMARK   85  A    between atoms: _189  and  _190
REMARK   86  A    between atoms: _189  and  _192
REMARK   87  A    between atoms: _192  and  _193
REMARK   88  A    between atoms: _198  and  _200
REMARK   89  A    between atoms: _200  and  _201
REMARK   90  A    between atoms: _204  and  _206
REMARK   91  A    between atoms: _206  and  _207
REMARK   92  A    between atoms: _206  and  _209
REMARK   93  A    between atoms: _209  and  _210
REMARK   94  A    between atoms: _213  and  _215
REMARK   95  A    between atoms: _215  and  _216
REMARK   96  A    between atoms: _215  and  _218
REMARK   97  A    between atoms: _221  and  _223
REMARK   98  A    between atoms: _223  and  _224
REMARK   99  A    between atoms: _227  and  _228
REMARK  100  A    between atoms: _233  and  _235
REMARK  101  A    between atoms: _235  and  _236
REMARK  102  A    between atoms: _235  and  _238
REMARK  103  A    between atoms: _238  and  _239
REMARK  104  A    between atoms: _241  and  _243
REMARK  105  A    between atoms: _243  and  _244
REMARK  106  A    between atoms: _243  and  _246
REMARK  107  A    between atoms: _246  and  _247
REMARK  108  A    between atoms: _250  and  _252
REMARK  109  A    between atoms: _252  and  _253
REMARK  110  A    between atoms: _252  and  _255
REMARK  111  A    between atoms: _255  and  _256
REMARK  112  A    between atoms: _256  and  _257
REMARK  113  A    between atoms: _257  and  _258
REMARK  114  A    between atoms: _267  and  _269
REMARK  115  A    between atoms: _269  and  _270
REMARK  116  A    between atoms: _269  and  _272
REMARK  117  A    between atoms: _272  and  _273
REMARK  118  A    between atoms: _276  and  _277
REMARK  119  A    between atoms: _282  and  _284
REMARK  120  A    between atoms: _284  and  _285
REMARK  121  A    between atoms: _287  and  _289
REMARK  122  A    between atoms: _289  and  _290
REMARK  123  A    between atoms: _289  and  _292
REMARK  124  A    between atoms: _295  and  _297
REMARK  125  A    between atoms: _297  and  _298
REMARK  126  A    between atoms: _300  and  _302
REMARK  127  A    between atoms: _302  and  _303
REMARK  128  A    between atoms: _306  and  _308
REMARK  129  A    between atoms: _308  and  _309
REMARK  130  A    between atoms: _308  and  _311
REMARK  131  A    between atoms: _311  and  _312
REMARK  132  A    between atoms: _312  and  _313
REMARK  133  A    between atoms: _318  and  _320
REMARK  134  A    between atoms: _320  and  _321
REMARK  135  A    between atoms: _323  and  _325
REMARK  136  A    between atoms: _325  and  _326
REMARK  137  A    between atoms: _328  and  _330
REMARK  138  A    between atoms: _330  and  _331
REMARK  139  A    between atoms: _330  and  _333
REMARK  140  A    between atoms: _333  and  _334
REMARK  141  A    between atoms: _337  and  _339
REMARK  142  A    between atoms: _339  and  _340
REMARK  143  A    between atoms: _339  and  _342
REMARK  144  A    between atoms: _345  and  _347
REMARK  145  A    between atoms: _347  and  _348
REMARK  146  A    between atoms: _350  and  _352
REMARK  147  A    between atoms: _352  and  _353
REMARK  148  A    between atoms: _352  and  _355
REMARK  149  A    between atoms: _355  and  _356
REMARK  150  A    between atoms: _356  and  _357
REMARK  151  A    between atoms: _357  and  _358
REMARK  152  A    between atoms: _367  and  _369
REMARK  153  A    between atoms: _369  and  _370
REMARK  154  A    between atoms: _369  and  _372
REMARK  155  A    between atoms: _372  and  _373
REMARK  156  A    between atoms: _375  and  _377
REMARK  157  A    between atoms: _377  and  _378
REMARK  158  A    between atoms: _377  and  _380
REMARK  159  A    between atoms: _380  and  _381
REMARK  160  A    between atoms: _384  and  _386
REMARK  161  A    between atoms: _386  and  _387
REMARK  162  A    between atoms: _386  and  _389
REMARK  163  A    between atoms: _389  and  _390
REMARK  164  A    between atoms: _395  and  _396
REMARK  165  A    between atoms: _398  and  _400
REMARK  166  A    between atoms: _400  and  _401
REMARK  167  A    between atoms: _400  and  _403
REMARK  168  A    between atoms: _403  and  _404
REMARK  169  A    between atoms: _407  and  _409
REMARK  170  A    between atoms: _409  and  _410
REMARK  171  A    between atoms: _413  and  _415
REMARK  172  A    between atoms: _415  and  _416
REMARK  173  A    between atoms: _415  and  _418
REMARK  174  A    between atoms: _418  and  _419
REMARK  175  A    between atoms: _422  and  _424
REMARK  176  A    between atoms: _424  and  _425
REMARK  177  A    between atoms: _424  and  _427
REMARK  178  A    between atoms: _427  and  _428
REMARK  179  A    between atoms: _432  and  _433
REMARK  180  A    between atoms: _438  and  _440
REMARK  181  A    between atoms: _440  and  _441
REMARK  182  A    between atoms: _440  and  _443
REMARK  183  A    between atoms: _443  and  _444
REMARK  184  A    between atoms: _444  and  _445
REMARK  185  A    between atoms: _448  and  _450
REMARK  186  A    between atoms: _450  and  _451
REMARK  187  A    between atoms: _450  and  _453
REMARK  188  A    between atoms: _453  and  _454
REMARK  189  A    between atoms: _457  and  _459
REMARK  190  A    between atoms: _459  and  _460
REMARK  191  A    between atoms: _459  and  _462
REMARK  192  A    between atoms: _462  and  _463
REMARK  193  A    between atoms: _468  and  _470
REMARK  194  A    between atoms: _470  and  _471
REMARK  195  A    between atoms: _470  and  _473
REMARK  196  A    between atoms: _473  and  _474
REMARK  197  A    between atoms: _474  and  _475
REMARK  198  A    between atoms: _475  and  _476
REMARK  199  A    between atoms: _476  and  _477
REMARK  200  A    between atoms: _481  and  _483
REMARK  201  A    between atoms: _483  and  _484
REMARK  202  A    between atoms: _483  and  _486
REMARK  203  A    between atoms: _486  and  _487
REMARK                            x       y       z     vdW  Elec       q    Type
REMARK                         _______ _______ _______ _____ _____    ______ ____
ROOT
ATOM      1  O   HOH     1      16.134  32.695  38.427  0.00  0.00    +0.000 OA
ENDROOT
TORSDOF 0
REMARK  Name = ../refined-set-2016/3w07/3w07_pocket.pdb
REMARK  203 active torsions:
REMARK  status: ('A' for Active; 'I' for Inactive)
REMARK    1  A    between atoms: _1  and  _3
REMARK    2  A    between atoms: _3  and  _4
REMARK    3  A    between atoms: _3  and  _6
REMARK    4  A    between atoms: _6  and  _7
REMARK    5  A    between atoms: _10  and  _12
REMARK    6  A    between atoms: _12  and  _13
REMARK    7  A    between atoms: _12  and  _15
REMARK    8  A    between atoms: _15  and  _16
REMARK    9  A    between atoms: _19  and  _21
REMARK   10  A    between atoms: _21  and  _22
REMARK   11  A    between atoms: _25  and  _27
REMARK   12  A    between atoms: _27  and  _28
REMARK   13  A    between atoms: _27  and  _30
REMARK   14  A    between atoms: _30  and  _31
REMARK   15  A    between atoms: _31  and  _32
REMARK   16  A    between atoms: _34  and  _36
REMARK   17  A    between atoms: _36  and  _37
REMARK   18  A    between atoms: _36  and  _39
REMARK   19  A    between atoms: _39  and  _40
REMARK   20  A    between atoms: _43  and  _45
REMARK   21  A    between atoms: _45  and  _46
REMARK   22  A    between atoms: _45  and  _48
REMARK   23  A    between atoms: _48  and  _49
REMARK   24  A    between atoms: _49  and  _50
REMARK   25  A    between atoms: _50  and  _51
REMARK   26  A    between atoms: _51  and  _52
REMARK   27  A    between atoms: _56  and  _58
REMARK   28  A    between atoms: _58  and  _59
REMARK   29  A    between atoms: _58  and  _61
REMARK   30  A    between atoms: _61  and  _62
REMARK   31  A    between atoms: _65  and  _67
REMARK   32  A    between atoms: _67  and  _68
REMARK   33  A    between atoms: _70  and  _72
REMARK   34  A    between atoms: _72  and  _73
REMARK   35  A    between atoms: _72  and  _75
REMARK   36  A    between atoms: _75  and  _76
REMARK   37  A    between atoms: _81  and  _82
REMARK   38  A    between atoms: _85  and  _86
REMARK   39  A    between atoms: _91  and  _93
REMARK   40  A    between atoms: _93  and  _94
REMARK   41  A    between atoms: _93  and  _96
REMARK   42  A    between atoms: _96  and  _97
REMARK   43  A    between atoms: _100  and  _102
REMARK   44  A    between atoms: _102  and  _103
REMARK   45  A    between atoms: _102  and  _105
REMARK   46  A    between atoms: _105  and  _106
REMARK   47  A    between atoms: _109  and  _111
REMARK   48  A    between atoms: _111  and  _112
REMARK   49  A    between atoms: _111  and  _114
REMARK   50  A    between atoms: _114  and  _115
REMARK   51  A    between atoms: _115  and  _116
REMARK   52  A    between atoms: _116  and  _117
REMARK   53  A    between atoms: _117  and  _118
REMARK   54  A    between atoms: _122  and  _124
REMARK   55  A    between atoms: _124  and  _125
REMARK   56  A    between atoms: _124  and  _127
REMARK   57  A    between atoms: _127  and  _128
REMARK   58  A    between atoms: _131  and  _133
REMARK   59  A    between atoms: _133  and  _134
REMARK   60  A    between atoms: _133  and  _136
REMARK   61  A    between atoms: _136  and  _137
REMARK   62  A    between atoms: _142  and  _144
REMARK   63  A    between atoms: _144  and  _145
REMARK   64  A    between atoms: _144  and  _147
REMARK   65  A    between atoms: _147  and  _148
REMARK   66  A    between atoms: _151  and  _153
REMARK   67  A    between atoms: _153  and  _154
REMARK   68  A    between atoms: _153  and  _156
REMARK   69  A    between atoms: _156  and  _157
REMARK   70  A    between atoms: _160  and  _162
REMARK   71  A    between atoms: _162  and  _163
REMARK   72  A    between atoms: _162  and  _165
REMARK   73  A    between atoms: _165  and  _166
REMARK   74  A    between atoms: _166  and  _167
REMARK   75  A    between atoms: _170  and  _172
REMARK   76  A    between atoms: _172  and  _173
REMARK   77  A    between atoms: _172  and  _175
REMARK   78  A    between atoms: _175  and  _176
REMARK   79  A    between atoms: _176  and  _177
REMARK   80  A    between atoms: _179  and  _181
REMARK   81  A    between atoms: _181  and  _182
REMARK   82  A    between atoms: _181  and  _184
REMARK   83  A    between atoms: _184  and  _185
REMARK   84  A    between atoms: _187  and  _189
REMARK   85  A    between atoms: _189  and  _190
REMARK   86  A    between atoms: _189  and  _192
REMARK   87  A    between atoms: _192  and  _193
REMARK   88  A    between atoms: _198  and  _200
REMARK   89  A    between atoms: _200  and  _201
REMARK   90  A    between atoms: _204  and  _206
REMARK   91  A    between atoms: _206  and  _207
REMARK   92  A    between atoms: _206  and  _209
REMARK   93  A    between atoms: _209  and  _210
REMARK   94  A    between atoms: _213  and  _215
REMARK   95  A    between atoms: _215  and  _216
REMARK   96  A    between atoms: _215  and  _218
REMARK   97  A    between atoms: _221  and  _223
REMARK   98  A    between atoms: _223  and  _224
REMARK   99  A    between atoms: _227  and  _228
REMARK  100  A    between atoms: _233  and  _235
REMARK  101  A    between atoms: _235  and  _236
REMARK  102  A    between atoms: _235  and  _238
REMARK  103  A    between atoms: _238  and  _239
REMARK  104  A    between atoms: _241  and  _243
REMARK  105  A    between atoms: _243  and  _244
REMARK  106  A    between atoms: _243  and  _246
REMARK  107  A    between atoms: _246  and  _247
REMARK  108  A    between atoms: _250  and  _252
REMARK  109  A    between atoms: _252  and  _253
REMARK  110  A    between atoms: _252  and  _255
REMARK  111  A    between atoms: _255  and  _256
REMARK  112  A    between atoms: _256  and  _257
REMARK  113  A    between atoms: _257  and  _258
REMARK  114  A    between atoms: _267  and  _269
REMARK  115  A    between atoms: _269  and  _270
REMARK  116  A    between atoms: _269  and  _272
REMARK  117  A    between atoms: _272  and  _273
REMARK  118  A    between atoms: _276  and  _277
REMARK  119  A    between atoms: _282  and  _284
REMARK  120  A    between atoms: _284  and  _285
REMARK  121  A    between atoms: _287  and  _289
REMARK  122  A    between atoms: _289  and  _290
REMARK  123  A    between atoms: _289  and  _292
REMARK  124  A    between atoms: _295  and  _297
REMARK  125  A    between atoms: _297  and  _298
REMARK  126  A    between atoms: _300  and  _302
REMARK  127  A    between atoms: _302  and  _303
REMARK  128  A    between atoms: _306  and  _308
REMARK  129  A    between atoms: _308  and  _309
REMARK  130  A    between atoms: _308  and  _311
REMARK  131  A    between atoms: _311  and  _312
REMARK  132  A    between atoms: _312  and  _313
REMARK  133  A    between atoms: _318  and  _320
REMARK  134  A    between atoms: _320  and  _321
REMARK  135  A    between atoms: _323  and  _325
REMARK  136  A    between atoms: _325  and  _326
REMARK  137  A    between atoms: _328  and  _330
REMARK  138  A    between atoms: _330  and  _331
REMARK  139  A    between atoms: _330  and  _333
REMARK  140  A    between atoms: _333  and  _334
REMARK  141  A    between atoms: _337  and  _339
REMARK  142  A    between atoms: _339  and  _340
REMARK  143  A    between atoms: _339  and  _342
REMARK  144  A    between atoms: _345  and  _347
REMARK  145  A    between atoms: _347  and  _348
REMARK  146  A    between atoms: _350  and  _352
REMARK  147  A    between atoms: _352  and  _353
REMARK  148  A    between atoms: _352  and  _355
REMARK  149  A    between atoms: _355  and  _356
REMARK  150  A    between atoms: _356  and  _357
REMARK  151  A    between atoms: _357  and  _358
REMARK  152  A    between atoms: _367  and  _369
REMARK  153  A    between atoms: _369  and  _370
REMARK  154  A    between atoms: _369  and  _372
REMARK  155  A    between atoms: _372  and  _373
REMARK  156  A    between atoms: _375  and  _377
REMARK  157  A    between atoms: _377  and  _378
REMARK  158  A    between atoms: _377  and  _380
REMARK  159  A    between atoms: _380  and  _381
REMARK  160  A    between atoms: _384  and  _386
REMARK  161  A    between atoms: _386  and  _387
REMARK  162  A    between atoms: _386  and  _389
REMARK  163  A    between atoms: _389  and  _390
REMARK  164  A    between atoms: _395  and  _396
REMARK  165  A    between atoms: _398  and  _400
REMARK  166  A    between atoms: _400  and  _401
REMARK  167  A    between atoms: _400  and  _403
REMARK  168  A    between atoms: _403  and  _404
REMARK  169  A    between atoms: _407  and  _409
REMARK  170  A    between atoms: _409  and  _410
REMARK  171  A    between atoms: _413  and  _415
REMARK  172  A    between atoms: _415  and  _416
REMARK  173  A    between atoms: _415  and  _418
REMARK  174  A    between atoms: _418  and  _419
REMARK  175  A    between atoms: _422  and  _424
REMARK  176  A    between atoms: _424  and  _425
REMARK  177  A    between atoms: _424  and  _427
REMARK  178  A    between atoms: _427  and  _428
REMARK  179  A    between atoms: _432  and  _433
REMARK  180  A    between atoms: _438  and  _440
REMARK  181  A    between atoms: _440  and  _441
REMARK  182  A    between atoms: _440  and  _443
REMARK  183  A    between atoms: _443  and  _444
REMARK  184  A    between atoms: _444  and  _445
REMARK  185  A    between atoms: _448  and  _450
REMARK  186  A    between atoms: _450  and  _451
REMARK  187  A    between atoms: _450  and  _453
REMARK  188  A    between atoms: _453  and  _454
REMARK  189  A    between atoms: _457  and  _459
REMARK  190  A    between atoms: _459  and  _460
REMARK  191  A    between atoms: _459  and  _462
REMARK  192  A    between atoms: _462  and  _463
REMARK  193  A    between atoms: _468  and  _470
REMARK  194  A    between atoms: _470  and  _471
REMARK  195  A    between atoms: _470  and  _473
REMARK  196  A    between atoms: _473  and  _474
REMARK  197  A    between atoms: _474  and  _475
REMARK  198  A    between atoms: _475  and  _476
REMARK  199  A    between atoms: _476  and  _477
REMARK  200  A    between atoms: _481  and  _483
REMARK  201  A    between atoms: _483  and  _484
REMARK  202  A    between atoms: _483  and  _486
REMARK  203  A    between atoms: _486  and  _487
REMARK                            x       y       z     vdW  Elec       q    Type
REMARK                         _______ _______ _______ _____ _____    ______ ____
ROOT
ATOM      1  O   HOH     1      19.197  30.898  38.262  0.00  0.00    +0.000 OA
ENDROOT
TORSDOF 0
REMARK  Name = ../refined-set-2016/3w07/3w07_pocket.pdb
REMARK  203 active torsions:
REMARK  status: ('A' for Active; 'I' for Inactive)
REMARK    1  A    between atoms: _1  and  _3
REMARK    2  A    between atoms: _3  and  _4
REMARK    3  A    between atoms: _3  and  _6
REMARK    4  A    between atoms: _6  and  _7
REMARK    5  A    between atoms: _10  and  _12
REMARK    6  A    between atoms: _12  and  _13
REMARK    7  A    between atoms: _12  and  _15
REMARK    8  A    between atoms: _15  and  _16
REMARK    9  A    between atoms: _19  and  _21
REMARK   10  A    between atoms: _21  and  _22
REMARK   11  A    between atoms: _25  and  _27
REMARK   12  A    between atoms: _27  and  _28
REMARK   13  A    between atoms: _27  and  _30
REMARK   14  A    between atoms: _30  and  _31
REMARK   15  A    between atoms: _31  and  _32
REMARK   16  A    between atoms: _34  and  _36
REMARK   17  A    between atoms: _36  and  _37
REMARK   18  A    between atoms: _36  and  _39
REMARK   19  A    between atoms: _39  and  _40
REMARK   20  A    between atoms: _43  and  _45
REMARK   21  A    between atoms: _45  and  _46
REMARK   22  A    between atoms: _45  and  _48
REMARK   23  A    between atoms: _48  and  _49
REMARK   24  A    between atoms: _49  and  _50
REMARK   25  A    between atoms: _50  and  _51
REMARK   26  A    between atoms: _51  and  _52
REMARK   27  A    between atoms: _56  and  _58
REMARK   28  A    between atoms: _58  and  _59
REMARK   29  A    between atoms: _58  and  _61
REMARK   30  A    between atoms: _61  and  _62
REMARK   31  A    between atoms: _65  and  _67
REMARK   32  A    between atoms: _67  and  _68
REMARK   33  A    between atoms: _70  and  _72
REMARK   34  A    between atoms: _72  and  _73
REMARK   35  A    between atoms: _72  and  _75
REMARK   36  A    between atoms: _75  and  _76
REMARK   37  A    between atoms: _81  and  _82
REMARK   38  A    between atoms: _85  and  _86
REMARK   39  A    between atoms: _91  and  _93
REMARK   40  A    between atoms: _93  and  _94
REMARK   41  A    between atoms: _93  and  _96
REMARK   42  A    between atoms: _96  and  _97
REMARK   43  A    between atoms: _100  and  _102
REMARK   44  A    between atoms: _102  and  _103
REMARK   45  A    between atoms: _102  and  _105
REMARK   46  A    between atoms: _105  and  _106
REMARK   47  A    between atoms: _109  and  _111
REMARK   48  A    between atoms: _111  and  _112
REMARK   49  A    between atoms: _111  and  _114
REMARK   50  A    between atoms: _114  and  _115
REMARK   51  A    between atoms: _115  and  _116
REMARK   52  A    between atoms: _116  and  _117
REMARK   53  A    between atoms: _117  and  _118
REMARK   54  A    between atoms: _122  and  _124
REMARK   55  A    between atoms: _124  and  _125
REMARK   56  A    between atoms: _124  and  _127
REMARK   57  A    between atoms: _127  and  _128
REMARK   58  A    between atoms: _131  and  _133
REMARK   59  A    between atoms: _133  and  _134
REMARK   60  A    between atoms: _133  and  _136
REMARK   61  A    between atoms: _136  and  _137
REMARK   62  A    between atoms: _142  and  _144
REMARK   63  A    between atoms: _144  and  _145
REMARK   64  A    between atoms: _144  and  _147
REMARK   65  A    between atoms: _147  and  _148
REMARK   66  A    between atoms: _151  and  _153
REMARK   67  A    between atoms: _153  and  _154
REMARK   68  A    between atoms: _153  and  _156
REMARK   69  A    between atoms: _156  and  _157
REMARK   70  A    between atoms: _160  and  _162
REMARK   71  A    between atoms: _162  and  _163
REMARK   72  A    between atoms: _162  and  _165
REMARK   73  A    between atoms: _165  and  _166
REMARK   74  A    between atoms: _166  and  _167
REMARK   75  A    between atoms: _170  and  _172
REMARK   76  A    between atoms: _172  and  _173
REMARK   77  A    between atoms: _172  and  _175
REMARK   78  A    between atoms: _175  and  _176
REMARK   79  A    between atoms: _176  and  _177
REMARK   80  A    between atoms: _179  and  _181
REMARK   81  A    between atoms: _181  and  _182
REMARK   82  A    between atoms: _181  and  _184
REMARK   83  A    between atoms: _184  and  _185
REMARK   84  A    between atoms: _187  and  _189
REMARK   85  A    between atoms: _189  and  _190
REMARK   86  A    between atoms: _189  and  _192
REMARK   87  A    between atoms: _192  and  _193
REMARK   88  A    between atoms: _198  and  _200
REMARK   89  A    between atoms: _200  and  _201
REMARK   90  A    between atoms: _204  and  _206
REMARK   91  A    between atoms: _206  and  _207
REMARK   92  A    between atoms: _206  and  _209
REMARK   93  A    between atoms: _209  and  _210
REMARK   94  A    between atoms: _213  and  _215
REMARK   95  A    between atoms: _215  and  _216
REMARK   96  A    between atoms: _215  and  _218
REMARK   97  A    between atoms: _221  and  _223
REMARK   98  A    between atoms: _223  and  _224
REMARK   99  A    between atoms: _227  and  _228
REMARK  100  A    between atoms: _233  and  _235
REMARK  101  A    between atoms: _235  and  _236
REMARK  102  A    between atoms: _235  and  _238
REMARK  103  A    between atoms: _238  and  _239
REMARK  104  A    between atoms: _241  and  _243
REMARK  105  A    between atoms: _243  and  _244
REMARK  106  A    between atoms: _243  and  _246
REMARK  107  A    between atoms: _246  and  _247
REMARK  108  A    between atoms: _250  and  _252
REMARK  109  A    between atoms: _252  and  _253
REMARK  110  A    between atoms: _252  and  _255
REMARK  111  A    between atoms: _255  and  _256
REMARK  112  A    between atoms: _256  and  _257
REMARK  113  A    between atoms: _257  and  _258
REMARK  114  A    between atoms: _267  and  _269
REMARK  115  A    between atoms: _269  and  _270
REMARK  116  A    between atoms: _269  and  _272
REMARK  117  A    between atoms: _272  and  _273
REMARK  118  A    between atoms: _276  and  _277
REMARK  119  A    between atoms: _282  and  _284
REMARK  120  A    between atoms: _284  and  _285
REMARK  121  A    between atoms: _287  and  _289
REMARK  122  A    between atoms: _289  and  _290
REMARK  123  A    between atoms: _289  and  _292
REMARK  124  A    between atoms: _295  and  _297
REMARK  125  A    between atoms: _297  and  _298
REMARK  126  A    between atoms: _300  and  _302
REMARK  127  A    between atoms: _302  and  _303
REMARK  128  A    between atoms: _306  and  _308
REMARK  129  A    between atoms: _308  and  _309
REMARK  130  A    between atoms: _308  and  _311
REMARK  131  A    between atoms: _311  and  _312
REMARK  132  A    between atoms: _312  and  _313
REMARK  133  A    between atoms: _318  and  _320
REMARK  134  A    between atoms: _320  and  _321
REMARK  135  A    between atoms: _323  and  _325
REMARK  136  A    between atoms: _325  and  _326
REMARK  137  A    between atoms: _328  and  _330
REMARK  138  A    between atoms: _330  and  _331
REMARK  139  A    between atoms: _330  and  _333
REMARK  140  A    between atoms: _333  and  _334
REMARK  141  A    between atoms: _337  and  _339
REMARK  142  A    between atoms: _339  and  _340
REMARK  143  A    between atoms: _339  and  _342
REMARK  144  A    between atoms: _345  and  _347
REMARK  145  A    between atoms: _347  and  _348
REMARK  146  A    between atoms: _350  and  _352
REMARK  147  A    between atoms: _352  and  _353
REMARK  148  A    between atoms: _352  and  _355
REMARK  149  A    between atoms: _355  and  _356
REMARK  150  A    between atoms: _356  and  _357
REMARK  151  A    between atoms: _357  and  _358
REMARK  152  A    between atoms: _367  and  _369
REMARK  153  A    between atoms: _369  and  _370
REMARK  154  A    between atoms: _369  and  _372
REMARK  155  A    between atoms: _372  and  _373
REMARK  156  A    between atoms: _375  and  _377
REMARK  157  A    between atoms: _377  and  _378
REMARK  158  A    between atoms: _377  and  _380
REMARK  159  A    between atoms: _380  and  _381
REMARK  160  A    between atoms: _384  and  _386
REMARK  161  A    between atoms: _386  and  _387
REMARK  162  A    between atoms: _386  and  _389
REMARK  163  A    between atoms: _389  and  _390
REMARK  164  A    between atoms: _395  and  _396
REMARK  165  A    between atoms: _398  and  _400
REMARK  166  A    between atoms: _400  and  _401
REMARK  167  A    between atoms: _400  and  _403
REMARK  168  A    between atoms: _403  and  _404
REMARK  169  A    between atoms: _407  and  _409
REMARK  170  A    between atoms: _409  and  _410
REMARK  171  A    between atoms: _413  and  _415
REMARK  172  A    between atoms: _415  and  _416
REMARK  173  A    between atoms: _415  and  _418
REMARK  174  A    between atoms: _418  and  _419
REMARK  175  A    between atoms: _422  and  _424
REMARK  176  A    between atoms: _424  and  _425
REMARK  177  A    between atoms: _424  and  _427
REMARK  178  A    between atoms: _427  and  _428
REMARK  179  A    between atoms: _432  and  _433
REMARK  180  A    between atoms: _438  and  _440
REMARK  181  A    between atoms: _440  and  _441
REMARK  182  A    between atoms: _440  and  _443
REMARK  183  A    between atoms: _443  and  _444
REMARK  184  A    between atoms: _444  and  _445
REMARK  185  A    between atoms: _448  and  _450
REMARK  186  A    between atoms: _450  and  _451
REMARK  187  A    between atoms: _450  and  _453
REMARK  188  A    between atoms: _453  and  _454
REMARK  189  A    between atoms: _457  and  _459
REMARK  190  A    between atoms: _459  and  _460
REMARK  191  A    between atoms: _459  and  _462
REMARK  192  A    between atoms: _462  and  _463
REMARK  193  A    between atoms: _468  and  _470
REMARK  194  A    between atoms: _470  and  _471
REMARK  195  A    between atoms: _470  and  _473
REMARK  196  A    between atoms: _473  and  _474
REMARK  197  A    between atoms: _474  and  _475
REMARK  198  A    between atoms: _475  and  _476
REMARK  199  A    between atoms: _476  and  _477
REMARK  200  A    between atoms: _481  and  _483
REMARK  201  A    between atoms: _483  and  _484
REMARK  202  A    between atoms: _483  and  _486
REMARK  203  A    between atoms: _486  and  _487
REMARK                            x       y       z     vdW  Elec       q    Type
REMARK                         _______ _______ _______ _____ _____    ______ ____
ROOT
ATOM      1  O   HOH     1      26.516  41.689  36.743  0.00  0.00    +0.000 OA
ENDROOT
TORSDOF 0
REMARK  Name = ../refined-set-2016/3w07/3w07_pocket.pdb
REMARK  203 active torsions:
REMARK  status: ('A' for Active; 'I' for Inactive)
REMARK    1  A    between atoms: _1  and  _3
REMARK    2  A    between atoms: _3  and  _4
REMARK    3  A    between atoms: _3  and  _6
REMARK    4  A    between atoms: _6  and  _7
REMARK    5  A    between atoms: _10  and  _12
REMARK    6  A    between atoms: _12  and  _13
REMARK    7  A    between atoms: _12  and  _15
REMARK    8  A    between atoms: _15  and  _16
REMARK    9  A    between atoms: _19  and  _21
REMARK   10  A    between atoms: _21  and  _22
REMARK   11  A    between atoms: _25  and  _27
REMARK   12  A    between atoms: _27  and  _28
REMARK   13  A    between atoms: _27  and  _30
REMARK   14  A    between atoms: _30  and  _31
REMARK   15  A    between atoms: _31  and  _32
REMARK   16  A    between atoms: _34  and  _36
REMARK   17  A    between atoms: _36  and  _37
REMARK   18  A    between atoms: _36  and  _39
REMARK   19  A    between atoms: _39  and  _40
REMARK   20  A    between atoms: _43  and  _45
REMARK   21  A    between atoms: _45  and  _46
REMARK   22  A    between atoms: _45  and  _48
REMARK   23  A    between atoms: _48  and  _49
REMARK   24  A    between atoms: _49  and  _50
REMARK   25  A    between atoms: _50  and  _51
REMARK   26  A    between atoms: _51  and  _52
REMARK   27  A    between atoms: _56  and  _58
REMARK   28  A    between atoms: _58  and  _59
REMARK   29  A    between atoms: _58  and  _61
REMARK   30  A    between atoms: _61  and  _62
REMARK   31  A    between atoms: _65  and  _67
REMARK   32  A    between atoms: _67  and  _68
REMARK   33  A    between atoms: _70  and  _72
REMARK   34  A    between atoms: _72  and  _73
REMARK   35  A    between atoms: _72  and  _75
REMARK   36  A    between atoms: _75  and  _76
REMARK   37  A    between atoms: _81  and  _82
REMARK   38  A    between atoms: _85  and  _86
REMARK   39  A    between atoms: _91  and  _93
REMARK   40  A    between atoms: _93  and  _94
REMARK   41  A    between atoms: _93  and  _96
REMARK   42  A    between atoms: _96  and  _97
REMARK   43  A    between atoms: _100  and  _102
REMARK   44  A    between atoms: _102  and  _103
REMARK   45  A    between atoms: _102  and  _105
REMARK   46  A    between atoms: _105  and  _106
REMARK   47  A    between atoms: _109  and  _111
REMARK   48  A    between atoms: _111  and  _112
REMARK   49  A    between atoms: _111  and  _114
REMARK   50  A    between atoms: _114  and  _115
REMARK   51  A    between atoms: _115  and  _116
REMARK   52  A    between atoms: _116  and  _117
REMARK   53  A    between atoms: _117  and  _118
REMARK   54  A    between atoms: _122  and  _124
REMARK   55  A    between atoms: _124  and  _125
REMARK   56  A    between atoms: _124  and  _127
REMARK   57  A    between atoms: _127  and  _128
REMARK   58  A    between atoms: _131  and  _133
REMARK   59  A    between atoms: _133  and  _134
REMARK   60  A    between atoms: _133  and  _136
REMARK   61  A    between atoms: _136  and  _137
REMARK   62  A    between atoms: _142  and  _144
REMARK   63  A    between atoms: _144  and  _145
REMARK   64  A    between atoms: _144  and  _147
REMARK   65  A    between atoms: _147  and  _148
REMARK   66  A    between atoms: _151  and  _153
REMARK   67  A    between atoms: _153  and  _154
REMARK   68  A    between atoms: _153  and  _156
REMARK   69  A    between atoms: _156  and  _157
REMARK   70  A    between atoms: _160  and  _162
REMARK   71  A    between atoms: _162  and  _163
REMARK   72  A    between atoms: _162  and  _165
REMARK   73  A    between atoms: _165  and  _166
REMARK   74  A    between atoms: _166  and  _167
REMARK   75  A    between atoms: _170  and  _172
REMARK   76  A    between atoms: _172  and  _173
REMARK   77  A    between atoms: _172  and  _175
REMARK   78  A    between atoms: _175  and  _176
REMARK   79  A    between atoms: _176  and  _177
REMARK   80  A    between atoms: _179  and  _181
REMARK   81  A    between atoms: _181  and  _182
REMARK   82  A    between atoms: _181  and  _184
REMARK   83  A    between atoms: _184  and  _185
REMARK   84  A    between atoms: _187  and  _189
REMARK   85  A    between atoms: _189  and  _190
REMARK   86  A    between atoms: _189  and  _192
REMARK   87  A    between atoms: _192  and  _193
REMARK   88  A    between atoms: _198  and  _200
REMARK   89  A    between atoms: _200  and  _201
REMARK   90  A    between atoms: _204  and  _206
REMARK   91  A    between atoms: _206  and  _207
REMARK   92  A    between atoms: _206  and  _209
REMARK   93  A    between atoms: _209  and  _210
REMARK   94  A    between atoms: _213  and  _215
REMARK   95  A    between atoms: _215  and  _216
REMARK   96  A    between atoms: _215  and  _218
REMARK   97  A    between atoms: _221  and  _223
REMARK   98  A    between atoms: _223  and  _224
REMARK   99  A    between atoms: _227  and  _228
REMARK  100  A    between atoms: _233  and  _235
REMARK  101  A    between atoms: _235  and  _236
REMARK  102  A    between atoms: _235  and  _238
REMARK  103  A    between atoms: _238  and  _239
REMARK  104  A    between atoms: _241  and  _243
REMARK  105  A    between atoms: _243  and  _244
REMARK  106  A    between atoms: _243  and  _246
REMARK  107  A    between atoms: _246  and  _247
REMARK  108  A    between atoms: _250  and  _252
REMARK  109  A    between atoms: _252  and  _253
REMARK  110  A    between atoms: _252  and  _255
REMARK  111  A    between atoms: _255  and  _256
REMARK  112  A    between atoms: _256  and  _257
REMARK  113  A    between atoms: _257  and  _258
REMARK  114  A    between atoms: _267  and  _269
REMARK  115  A    between atoms: _269  and  _270
REMARK  116  A    between atoms: _269  and  _272
REMARK  117  A    between atoms: _272  and  _273
REMARK  118  A    between atoms: _276  and  _277
REMARK  119  A    between atoms: _282  and  _284
REMARK  120  A    between atoms: _284  and  _285
REMARK  121  A    between atoms: _287  and  _289
REMARK  122  A    between atoms: _289  and  _290
REMARK  123  A    between atoms: _289  and  _292
REMARK  124  A    between atoms: _295  and  _297
REMARK  125  A    between atoms: _297  and  _298
REMARK  126  A    between atoms: _300  and  _302
REMARK  127  A    between atoms: _302  and  _303
REMARK  128  A    between atoms: _306  and  _308
REMARK  129  A    between atoms: _308  and  _309
REMARK  130  A    between atoms: _308  and  _311
REMARK  131  A    between atoms: _311  and  _312
REMARK  132  A    between atoms: _312  and  _313
REMARK  133  A    between atoms: _318  and  _320
REMARK  134  A    between atoms: _320  and  _321
REMARK  135  A    between atoms: _323  and  _325
REMARK  136  A    between atoms: _325  and  _326
REMARK  137  A    between atoms: _328  and  _330
REMARK  138  A    between atoms: _330  and  _331
REMARK  139  A    between atoms: _330  and  _333
REMARK  140  A    between atoms: _333  and  _334
REMARK  141  A    between atoms: _337  and  _339
REMARK  142  A    between atoms: _339  and  _340
REMARK  143  A    between atoms: _339  and  _342
REMARK  144  A    between atoms: _345  and  _347
REMARK  145  A    between atoms: _347  and  _348
REMARK  146  A    between atoms: _350  and  _352
REMARK  147  A    between atoms: _352  and  _353
REMARK  148  A    between atoms: _352  and  _355
REMARK  149  A    between atoms: _355  and  _356
REMARK  150  A    between atoms: _356  and  _357
REMARK  151  A    between atoms: _357  and  _358
REMARK  152  A    between atoms: _367  and  _369
REMARK  153  A    between atoms: _369  and  _370
REMARK  154  A    between atoms: _369  and  _372
REMARK  155  A    between atoms: _372  and  _373
REMARK  156  A    between atoms: _375  and  _377
REMARK  157  A    between atoms: _377  and  _378
REMARK  158  A    between atoms: _377  and  _380
REMARK  159  A    between atoms: _380  and  _381
REMARK  160  A    between atoms: _384  and  _386
REMARK  161  A    between atoms: _386  and  _387
REMARK  162  A    between atoms: _386  and  _389
REMARK  163  A    between atoms: _389  and  _390
REMARK  164  A    between atoms: _395  and  _396
REMARK  165  A    between atoms: _398  and  _400
REMARK  166  A    between atoms: _400  and  _401
REMARK  167  A    between atoms: _400  and  _403
REMARK  168  A    between atoms: _403  and  _404
REMARK  169  A    between atoms: _407  and  _409
REMARK  170  A    between atoms: _409  and  _410
REMARK  171  A    between atoms: _413  and  _415
REMARK  172  A    between atoms: _415  and  _416
REMARK  173  A    between atoms: _415  and  _418
REMARK  174  A    between atoms: _418  and  _419
REMARK  175  A    between atoms: _422  and  _424
REMARK  176  A    between atoms: _424  and  _425
REMARK  177  A    between atoms: _424  and  _427
REMARK  178  A    between atoms: _427  and  _428
REMARK  179  A    between atoms: _432  and  _433
REMARK  180  A    between atoms: _438  and  _440
REMARK  181  A    between atoms: _440  and  _441
REMARK  182  A    between atoms: _440  and  _443
REMARK  183  A    between atoms: _443  and  _444
REMARK  184  A    between atoms: _444  and  _445
REMARK  185  A    between atoms: _448  and  _450
REMARK  186  A    between atoms: _450  and  _451
REMARK  187  A    between atoms: _450  and  _453
REMARK  188  A    between atoms: _453  and  _454
REMARK  189  A    between atoms: _457  and  _459
REMARK  190  A    between atoms: _459  and  _460
REMARK  191  A    between atoms: _459  and  _462
REMARK  192  A    between atoms: _462  and  _463
REMARK  193  A    between atoms: _468  and  _470
REMARK  194  A    between atoms: _470  and  _471
REMARK  195  A    between atoms: _470  and  _473
REMARK  196  A    between atoms: _473  and  _474
REMARK  197  A    between atoms: _474  and  _475
REMARK  198  A    between atoms: _475  and  _476
REMARK  199  A    between atoms: _476  and  _477
REMARK  200  A    between atoms: _481  and  _483
REMARK  201  A    between atoms: _483  and  _484
REMARK  202  A    between atoms: _483  and  _486
REMARK  203  A    between atoms: _486  and  _487
REMARK                            x       y       z     vdW  Elec       q    Type
REMARK                         _______ _______ _______ _____ _____    ______ ____
ROOT
ATOM      1  O   HOH     1      11.272  39.649  33.286  0.00  0.00    +0.000 OA
ENDROOT
TORSDOF 0
REMARK  Name = ../refined-set-2016/3w07/3w07_pocket.pdb
REMARK  203 active torsions:
REMARK  status: ('A' for Active; 'I' for Inactive)
REMARK    1  A    between atoms: _1  and  _3
REMARK    2  A    between atoms: _3  and  _4
REMARK    3  A    between atoms: _3  and  _6
REMARK    4  A    between atoms: _6  and  _7
REMARK    5  A    between atoms: _10  and  _12
REMARK    6  A    between atoms: _12  and  _13
REMARK    7  A    between atoms: _12  and  _15
REMARK    8  A    between atoms: _15  and  _16
REMARK    9  A    between atoms: _19  and  _21
REMARK   10  A    between atoms: _21  and  _22
REMARK   11  A    between atoms: _25  and  _27
REMARK   12  A    between atoms: _27  and  _28
REMARK   13  A    between atoms: _27  and  _30
REMARK   14  A    between atoms: _30  and  _31
REMARK   15  A    between atoms: _31  and  _32
REMARK   16  A    between atoms: _34  and  _36
REMARK   17  A    between atoms: _36  and  _37
REMARK   18  A    between atoms: _36  and  _39
REMARK   19  A    between atoms: _39  and  _40
REMARK   20  A    between atoms: _43  and  _45
REMARK   21  A    between atoms: _45  and  _46
REMARK   22  A    between atoms: _45  and  _48
REMARK   23  A    between atoms: _48  and  _49
REMARK   24  A    between atoms: _49  and  _50
REMARK   25  A    between atoms: _50  and  _51
REMARK   26  A    between atoms: _51  and  _52
REMARK   27  A    between atoms: _56  and  _58
REMARK   28  A    between atoms: _58  and  _59
REMARK   29  A    between atoms: _58  and  _61
REMARK   30  A    between atoms: _61  and  _62
REMARK   31  A    between atoms: _65  and  _67
REMARK   32  A    between atoms: _67  and  _68
REMARK   33  A    between atoms: _70  and  _72
REMARK   34  A    between atoms: _72  and  _73
REMARK   35  A    between atoms: _72  and  _75
REMARK   36  A    between atoms: _75  and  _76
REMARK   37  A    between atoms: _81  and  _82
REMARK   38  A    between atoms: _85  and  _86
REMARK   39  A    between atoms: _91  and  _93
REMARK   40  A    between atoms: _93  and  _94
REMARK   41  A    between atoms: _93  and  _96
REMARK   42  A    between atoms: _96  and  _97
REMARK   43  A    between atoms: _100  and  _102
REMARK   44  A    between atoms: _102  and  _103
REMARK   45  A    between atoms: _102  and  _105
REMARK   46  A    between atoms: _105  and  _106
REMARK   47  A    between atoms: _109  and  _111
REMARK   48  A    between atoms: _111  and  _112
REMARK   49  A    between atoms: _111  and  _114
REMARK   50  A    between atoms: _114  and  _115
REMARK   51  A    between atoms: _115  and  _116
REMARK   52  A    between atoms: _116  and  _117
REMARK   53  A    between atoms: _117  and  _118
REMARK   54  A    between atoms: _122  and  _124
REMARK   55  A    between atoms: _124  and  _125
REMARK   56  A    between atoms: _124  and  _127
REMARK   57  A    between atoms: _127  and  _128
REMARK   58  A    between atoms: _131  and  _133
REMARK   59  A    between atoms: _133  and  _134
REMARK   60  A    between atoms: _133  and  _136
REMARK   61  A    between atoms: _136  and  _137
REMARK   62  A    between atoms: _142  and  _144
REMARK   63  A    between atoms: _144  and  _145
REMARK   64  A    between atoms: _144  and  _147
REMARK   65  A    between atoms: _147  and  _148
REMARK   66  A    between atoms: _151  and  _153
REMARK   67  A    between atoms: _153  and  _154
REMARK   68  A    between atoms: _153  and  _156
REMARK   69  A    between atoms: _156  and  _157
REMARK   70  A    between atoms: _160  and  _162
REMARK   71  A    between atoms: _162  and  _163
REMARK   72  A    between atoms: _162  and  _165
REMARK   73  A    between atoms: _165  and  _166
REMARK   74  A    between atoms: _166  and  _167
REMARK   75  A    between atoms: _170  and  _172
REMARK   76  A    between atoms: _172  and  _173
REMARK   77  A    between atoms: _172  and  _175
REMARK   78  A    between atoms: _175  and  _176
REMARK   79  A    between atoms: _176  and  _177
REMARK   80  A    between atoms: _179  and  _181
REMARK   81  A    between atoms: _181  and  _182
REMARK   82  A    between atoms: _181  and  _184
REMARK   83  A    between atoms: _184  and  _185
REMARK   84  A    between atoms: _187  and  _189
REMARK   85  A    between atoms: _189  and  _190
REMARK   86  A    between atoms: _189  and  _192
REMARK   87  A    between atoms: _192  and  _193
REMARK   88  A    between atoms: _198  and  _200
REMARK   89  A    between atoms: _200  and  _201
REMARK   90  A    between atoms: _204  and  _206
REMARK   91  A    between atoms: _206  and  _207
REMARK   92  A    between atoms: _206  and  _209
REMARK   93  A    between atoms: _209  and  _210
REMARK   94  A    between atoms: _213  and  _215
REMARK   95  A    between atoms: _215  and  _216
REMARK   96  A    between atoms: _215  and  _218
REMARK   97  A    between atoms: _221  and  _223
REMARK   98  A    between atoms: _223  and  _224
REMARK   99  A    between atoms: _227  and  _228
REMARK  100  A    between atoms: _233  and  _235
REMARK  101  A    between atoms: _235  and  _236
REMARK  102  A    between atoms: _235  and  _238
REMARK  103  A    between atoms: _238  and  _239
REMARK  104  A    between atoms: _241  and  _243
REMARK  105  A    between atoms: _243  and  _244
REMARK  106  A    between atoms: _243  and  _246
REMARK  107  A    between atoms: _246  and  _247
REMARK  108  A    between atoms: _250  and  _252
REMARK  109  A    between atoms: _252  and  _253
REMARK  110  A    between atoms: _252  and  _255
REMARK  111  A    between atoms: _255  and  _256
REMARK  112  A    between atoms: _256  and  _257
REMARK  113  A    between atoms: _257  and  _258
REMARK  114  A    between atoms: _267  and  _269
REMARK  115  A    between atoms: _269  and  _270
REMARK  116  A    between atoms: _269  and  _272
REMARK  117  A    between atoms: _272  and  _273
REMARK  118  A    between atoms: _276  and  _277
REMARK  119  A    between atoms: _282  and  _284
REMARK  120  A    between atoms: _284  and  _285
REMARK  121  A    between atoms: _287  and  _289
REMARK  122  A    between atoms: _289  and  _290
REMARK  123  A    between atoms: _289  and  _292
REMARK  124  A    between atoms: _295  and  _297
REMARK  125  A    between atoms: _297  and  _298
REMARK  126  A    between atoms: _300  and  _302
REMARK  127  A    between atoms: _302  and  _303
REMARK  128  A    between atoms: _306  and  _308
REMARK  129  A    between atoms: _308  and  _309
REMARK  130  A    between atoms: _308  and  _311
REMARK  131  A    between atoms: _311  and  _312
REMARK  132  A    between atoms: _312  and  _313
REMARK  133  A    between atoms: _318  and  _320
REMARK  134  A    between atoms: _320  and  _321
REMARK  135  A    between atoms: _323  and  _325
REMARK  136  A    between atoms: _325  and  _326
REMARK  137  A    between atoms: _328  and  _330
REMARK  138  A    between atoms: _330  and  _331
REMARK  139  A    between atoms: _330  and  _333
REMARK  140  A    between atoms: _333  and  _334
REMARK  141  A    between atoms: _337  and  _339
REMARK  142  A    between atoms: _339  and  _340
REMARK  143  A    between atoms: _339  and  _342
REMARK  144  A    between atoms: _345  and  _347
REMARK  145  A    between atoms: _347  and  _348
REMARK  146  A    between atoms: _350  and  _352
REMARK  147  A    between atoms: _352  and  _353
REMARK  148  A    between atoms: _352  and  _355
REMARK  149  A    between atoms: _355  and  _356
REMARK  150  A    between atoms: _356  and  _357
REMARK  151  A    between atoms: _357  and  _358
REMARK  152  A    between atoms: _367  and  _369
REMARK  153  A    between atoms: _369  and  _370
REMARK  154  A    between atoms: _369  and  _372
REMARK  155  A    between atoms: _372  and  _373
REMARK  156  A    between atoms: _375  and  _377
REMARK  157  A    between atoms: _377  and  _378
REMARK  158  A    between atoms: _377  and  _380
REMARK  159  A    between atoms: _380  and  _381
REMARK  160  A    between atoms: _384  and  _386
REMARK  161  A    between atoms: _386  and  _387
REMARK  162  A    between atoms: _386  and  _389
REMARK  163  A    between atoms: _389  and  _390
REMARK  164  A    between atoms: _395  and  _396
REMARK  165  A    between atoms: _398  and  _400
REMARK  166  A    between atoms: _400  and  _401
REMARK  167  A    between atoms: _400  and  _403
REMARK  168  A    between atoms: _403  and  _404
REMARK  169  A    between atoms: _407  and  _409
REMARK  170  A    between atoms: _409  and  _410
REMARK  171  A    between atoms: _413  and  _415
REMARK  172  A    between atoms: _415  and  _416
REMARK  173  A    between atoms: _415  and  _418
REMARK  174  A    between atoms: _418  and  _419
REMARK  175  A    between atoms: _422  and  _424
REMARK  176  A    between atoms: _424  and  _425
REMARK  177  A    between atoms: _424  and  _427
REMARK  178  A    between atoms: _427  and  _428
REMARK  179  A    between atoms: _432  and  _433
REMARK  180  A    between atoms: _438  and  _440
REMARK  181  A    between atoms: _440  and  _441
REMARK  182  A    between atoms: _440  and  _443
REMARK  183  A    between atoms: _443  and  _444
REMARK  184  A    between atoms: _444  and  _445
REMARK  185  A    between atoms: _448  and  _450
REMARK  186  A    between atoms: _450  and  _451
REMARK  187  A    between atoms: _450  and  _453
REMARK  188  A    between atoms: _453  and  _454
REMARK  189  A    between atoms: _457  and  _459
REMARK  190  A    between atoms: _459  and  _460
REMARK  191  A    between atoms: _459  and  _462
REMARK  192  A    between atoms: _462  and  _463
REMARK  193  A    between atoms: _468  and  _470
REMARK  194  A    between atoms: _470  and  _471
REMARK  195  A    between atoms: _470  and  _473
REMARK  196  A    between atoms: _473  and  _474
REMARK  197  A    between atoms: _474  and  _475
REMARK  198  A    between atoms: _475  and  _476
REMARK  199  A    between atoms: _476  and  _477
REMARK  200  A    between atoms: _481  and  _483
REMARK  201  A    between atoms: _483  and  _484
REMARK  202  A    between atoms: _483  and  _486
REMARK  203  A    between atoms: _486  and  _487
REMARK                            x       y       z     vdW  Elec       q    Type
REMARK                         _______ _______ _______ _____ _____    ______ ____
ROOT
ATOM      1  O   HOH     1      17.196  33.926  35.395  0.00  0.00    +0.000 OA
ENDROOT
TORSDOF 0
REMARK  Name = ../refined-set-2016/3w07/3w07_pocket.pdb
REMARK  203 active torsions:
REMARK  status: ('A' for Active; 'I' for Inactive)
REMARK    1  A    between atoms: _1  and  _3
REMARK    2  A    between atoms: _3  and  _4
REMARK    3  A    between atoms: _3  and  _6
REMARK    4  A    between atoms: _6  and  _7
REMARK    5  A    between atoms: _10  and  _12
REMARK    6  A    between atoms: _12  and  _13
REMARK    7  A    between atoms: _12  and  _15
REMARK    8  A    between atoms: _15  and  _16
REMARK    9  A    between atoms: _19  and  _21
REMARK   10  A    between atoms: _21  and  _22
REMARK   11  A    between atoms: _25  and  _27
REMARK   12  A    between atoms: _27  and  _28
REMARK   13  A    between atoms: _27  and  _30
REMARK   14  A    between atoms: _30  and  _31
REMARK   15  A    between atoms: _31  and  _32
REMARK   16  A    between atoms: _34  and  _36
REMARK   17  A    between atoms: _36  and  _37
REMARK   18  A    between atoms: _36  and  _39
REMARK   19  A    between atoms: _39  and  _40
REMARK   20  A    between atoms: _43  and  _45
REMARK   21  A    between atoms: _45  and  _46
REMARK   22  A    between atoms: _45  and  _48
REMARK   23  A    between atoms: _48  and  _49
REMARK   24  A    between atoms: _49  and  _50
REMARK   25  A    between atoms: _50  and  _51
REMARK   26  A    between atoms: _51  and  _52
REMARK   27  A    between atoms: _56  and  _58
REMARK   28  A    between atoms: _58  and  _59
REMARK   29  A    between atoms: _58  and  _61
REMARK   30  A    between atoms: _61  and  _62
REMARK   31  A    between atoms: _65  and  _67
REMARK   32  A    between atoms: _67  and  _68
REMARK   33  A    between atoms: _70  and  _72
REMARK   34  A    between atoms: _72  and  _73
REMARK   35  A    between atoms: _72  and  _75
REMARK   36  A    between atoms: _75  and  _76
REMARK   37  A    between atoms: _81  and  _82
REMARK   38  A    between atoms: _85  and  _86
REMARK   39  A    between atoms: _91  and  _93
REMARK   40  A    between atoms: _93  and  _94
REMARK   41  A    between atoms: _93  and  _96
REMARK   42  A    between atoms: _96  and  _97
REMARK   43  A    between atoms: _100  and  _102
REMARK   44  A    between atoms: _102  and  _103
REMARK   45  A    between atoms: _102  and  _105
REMARK   46  A    between atoms: _105  and  _106
REMARK   47  A    between atoms: _109  and  _111
REMARK   48  A    between atoms: _111  and  _112
REMARK   49  A    between atoms: _111  and  _114
REMARK   50  A    between atoms: _114  and  _115
REMARK   51  A    between atoms: _115  and  _116
REMARK   52  A    between atoms: _116  and  _117
REMARK   53  A    between atoms: _117  and  _118
REMARK   54  A    between atoms: _122  and  _124
REMARK   55  A    between atoms: _124  and  _125
REMARK   56  A    between atoms: _124  and  _127
REMARK   57  A    between atoms: _127  and  _128
REMARK   58  A    between atoms: _131  and  _133
REMARK   59  A    between atoms: _133  and  _134
REMARK   60  A    between atoms: _133  and  _136
REMARK   61  A    between atoms: _136  and  _137
REMARK   62  A    between atoms: _142  and  _144
REMARK   63  A    between atoms: _144  and  _145
REMARK   64  A    between atoms: _144  and  _147
REMARK   65  A    between atoms: _147  and  _148
REMARK   66  A    between atoms: _151  and  _153
REMARK   67  A    between atoms: _153  and  _154
REMARK   68  A    between atoms: _153  and  _156
REMARK   69  A    between atoms: _156  and  _157
REMARK   70  A    between atoms: _160  and  _162
REMARK   71  A    between atoms: _162  and  _163
REMARK   72  A    between atoms: _162  and  _165
REMARK   73  A    between atoms: _165  and  _166
REMARK   74  A    between atoms: _166  and  _167
REMARK   75  A    between atoms: _170  and  _172
REMARK   76  A    between atoms: _172  and  _173
REMARK   77  A    between atoms: _172  and  _175
REMARK   78  A    between atoms: _175  and  _176
REMARK   79  A    between atoms: _176  and  _177
REMARK   80  A    between atoms: _179  and  _181
REMARK   81  A    between atoms: _181  and  _182
REMARK   82  A    between atoms: _181  and  _184
REMARK   83  A    between atoms: _184  and  _185
REMARK   84  A    between atoms: _187  and  _189
REMARK   85  A    between atoms: _189  and  _190
REMARK   86  A    between atoms: _189  and  _192
REMARK   87  A    between atoms: _192  and  _193
REMARK   88  A    between atoms: _198  and  _200
REMARK   89  A    between atoms: _200  and  _201
REMARK   90  A    between atoms: _204  and  _206
REMARK   91  A    between atoms: _206  and  _207
REMARK   92  A    between atoms: _206  and  _209
REMARK   93  A    between atoms: _209  and  _210
REMARK   94  A    between atoms: _213  and  _215
REMARK   95  A    between atoms: _215  and  _216
REMARK   96  A    between atoms: _215  and  _218
REMARK   97  A    between atoms: _221  and  _223
REMARK   98  A    between atoms: _223  and  _224
REMARK   99  A    between atoms: _227  and  _228
REMARK  100  A    between atoms: _233  and  _235
REMARK  101  A    between atoms: _235  and  _236
REMARK  102  A    between atoms: _235  and  _238
REMARK  103  A    between atoms: _238  and  _239
REMARK  104  A    between atoms: _241  and  _243
REMARK  105  A    between atoms: _243  and  _244
REMARK  106  A    between atoms: _243  and  _246
REMARK  107  A    between atoms: _246  and  _247
REMARK  108  A    between atoms: _250  and  _252
REMARK  109  A    between atoms: _252  and  _253
REMARK  110  A    between atoms: _252  and  _255
REMARK  111  A    between atoms: _255  and  _256
REMARK  112  A    between atoms: _256  and  _257
REMARK  113  A    between atoms: _257  and  _258
REMARK  114  A    between atoms: _267  and  _269
REMARK  115  A    between atoms: _269  and  _270
REMARK  116  A    between atoms: _269  and  _272
REMARK  117  A    between atoms: _272  and  _273
REMARK  118  A    between atoms: _276  and  _277
REMARK  119  A    between atoms: _282  and  _284
REMARK  120  A    between atoms: _284  and  _285
REMARK  121  A    between atoms: _287  and  _289
REMARK  122  A    between atoms: _289  and  _290
REMARK  123  A    between atoms: _289  and  _292
REMARK  124  A    between atoms: _295  and  _297
REMARK  125  A    between atoms: _297  and  _298
REMARK  126  A    between atoms: _300  and  _302
REMARK  127  A    between atoms: _302  and  _303
REMARK  128  A    between atoms: _306  and  _308
REMARK  129  A    between atoms: _308  and  _309
REMARK  130  A    between atoms: _308  and  _311
REMARK  131  A    between atoms: _311  and  _312
REMARK  132  A    between atoms: _312  and  _313
REMARK  133  A    between atoms: _318  and  _320
REMARK  134  A    between atoms: _320  and  _321
REMARK  135  A    between atoms: _323  and  _325
REMARK  136  A    between atoms: _325  and  _326
REMARK  137  A    between atoms: _328  and  _330
REMARK  138  A    between atoms: _330  and  _331
REMARK  139  A    between atoms: _330  and  _333
REMARK  140  A    between atoms: _333  and  _334
REMARK  141  A    between atoms: _337  and  _339
REMARK  142  A    between atoms: _339  and  _340
REMARK  143  A    between atoms: _339  and  _342
REMARK  144  A    between atoms: _345  and  _347
REMARK  145  A    between atoms: _347  and  _348
REMARK  146  A    between atoms: _350  and  _352
REMARK  147  A    between atoms: _352  and  _353
REMARK  148  A    between atoms: _352  and  _355
REMARK  149  A    between atoms: _355  and  _356
REMARK  150  A    between atoms: _356  and  _357
REMARK  151  A    between atoms: _357  and  _358
REMARK  152  A    between atoms: _367  and  _369
REMARK  153  A    between atoms: _369  and  _370
REMARK  154  A    between atoms: _369  and  _372
REMARK  155  A    between atoms: _372  and  _373
REMARK  156  A    between atoms: _375  and  _377
REMARK  157  A    between atoms: _377  and  _378
REMARK  158  A    between atoms: _377  and  _380
REMARK  159  A    between atoms: _380  and  _381
REMARK  160  A    between atoms: _384  and  _386
REMARK  161  A    between atoms: _386  and  _387
REMARK  162  A    between atoms: _386  and  _389
REMARK  163  A    between atoms: _389  and  _390
REMARK  164  A    between atoms: _395  and  _396
REMARK  165  A    between atoms: _398  and  _400
REMARK  166  A    between atoms: _400  and  _401
REMARK  167  A    between atoms: _400  and  _403
REMARK  168  A    between atoms: _403  and  _404
REMARK  169  A    between atoms: _407  and  _409
REMARK  170  A    between atoms: _409  and  _410
REMARK  171  A    between atoms: _413  and  _415
REMARK  172  A    between atoms: _415  and  _416
REMARK  173  A    between atoms: _415  and  _418
REMARK  174  A    between atoms: _418  and  _419
REMARK  175  A    between atoms: _422  and  _424
REMARK  176  A    between atoms: _424  and  _425
REMARK  177  A    between atoms: _424  and  _427
REMARK  178  A    between atoms: _427  and  _428
REMARK  179  A    between atoms: _432  and  _433
REMARK  180  A    between atoms: _438  and  _440
REMARK  181  A    between atoms: _440  and  _441
REMARK  182  A    between atoms: _440  and  _443
REMARK  183  A    between atoms: _443  and  _444
REMARK  184  A    between atoms: _444  and  _445
REMARK  185  A    between atoms: _448  and  _450
REMARK  186  A    between atoms: _450  and  _451
REMARK  187  A    between atoms: _450  and  _453
REMARK  188  A    between atoms: _453  and  _454
REMARK  189  A    between atoms: _457  and  _459
REMARK  190  A    between atoms: _459  and  _460
REMARK  191  A    between atoms: _459  and  _462
REMARK  192  A    between atoms: _462  and  _463
REMARK  193  A    between atoms: _468  and  _470
REMARK  194  A    between atoms: _470  and  _471
REMARK  195  A    between atoms: _470  and  _473
REMARK  196  A    between atoms: _473  and  _474
REMARK  197  A    between atoms: _474  and  _475
REMARK  198  A    between atoms: _475  and  _476
REMARK  199  A    between atoms: _476  and  _477
REMARK  200  A    between atoms: _481  and  _483
REMARK  201  A    between atoms: _483  and  _484
REMARK  202  A    between atoms: _483  and  _486
REMARK  203  A    between atoms: _486  and  _487
REMARK                            x       y       z     vdW  Elec       q    Type
REMARK                         _______ _______ _______ _____ _____    ______ ____
ROOT
ATOM      1  O   HOH     1      21.983  36.679  39.536  0.00  0.00    +0.000 OA
ENDROOT
TORSDOF 0
REMARK  Name = ../refined-set-2016/3w07/3w07_pocket.pdb
REMARK  203 active torsions:
REMARK  status: ('A' for Active; 'I' for Inactive)
REMARK    1  A    between atoms: _1  and  _3
REMARK    2  A    between atoms: _3  and  _4
REMARK    3  A    between atoms: _3  and  _6
REMARK    4  A    between atoms: _6  and  _7
REMARK    5  A    between atoms: _10  and  _12
REMARK    6  A    between atoms: _12  and  _13
REMARK    7  A    between atoms: _12  and  _15
REMARK    8  A    between atoms: _15  and  _16
REMARK    9  A    between atoms: _19  and  _21
REMARK   10  A    between atoms: _21  and  _22
REMARK   11  A    between atoms: _25  and  _27
REMARK   12  A    between atoms: _27  and  _28
REMARK   13  A    between atoms: _27  and  _30
REMARK   14  A    between atoms: _30  and  _31
REMARK   15  A    between atoms: _31  and  _32
REMARK   16  A    between atoms: _34  and  _36
REMARK   17  A    between atoms: _36  and  _37
REMARK   18  A    between atoms: _36  and  _39
REMARK   19  A    between atoms: _39  and  _40
REMARK   20  A    between atoms: _43  and  _45
REMARK   21  A    between atoms: _45  and  _46
REMARK   22  A    between atoms: _45  and  _48
REMARK   23  A    between atoms: _48  and  _49
REMARK   24  A    between atoms: _49  and  _50
REMARK   25  A    between atoms: _50  and  _51
REMARK   26  A    between atoms: _51  and  _52
REMARK   27  A    between atoms: _56  and  _58
REMARK   28  A    between atoms: _58  and  _59
REMARK   29  A    between atoms: _58  and  _61
REMARK   30  A    between atoms: _61  and  _62
REMARK   31  A    between atoms: _65  and  _67
REMARK   32  A    between atoms: _67  and  _68
REMARK   33  A    between atoms: _70  and  _72
REMARK   34  A    between atoms: _72  and  _73
REMARK   35  A    between atoms: _72  and  _75
REMARK   36  A    between atoms: _75  and  _76
REMARK   37  A    between atoms: _81  and  _82
REMARK   38  A    between atoms: _85  and  _86
REMARK   39  A    between atoms: _91  and  _93
REMARK   40  A    between atoms: _93  and  _94
REMARK   41  A    between atoms: _93  and  _96
REMARK   42  A    between atoms: _96  and  _97
REMARK   43  A    between atoms: _100  and  _102
REMARK   44  A    between atoms: _102  and  _103
REMARK   45  A    between atoms: _102  and  _105
REMARK   46  A    between atoms: _105  and  _106
REMARK   47  A    between atoms: _109  and  _111
REMARK   48  A    between atoms: _111  and  _112
REMARK   49  A    between atoms: _111  and  _114
REMARK   50  A    between atoms: _114  and  _115
REMARK   51  A    between atoms: _115  and  _116
REMARK   52  A    between atoms: _116  and  _117
REMARK   53  A    between atoms: _117  and  _118
REMARK   54  A    between atoms: _122  and  _124
REMARK   55  A    between atoms: _124  and  _125
REMARK   56  A    between atoms: _124  and  _127
REMARK   57  A    between atoms: _127  and  _128
REMARK   58  A    between atoms: _131  and  _133
REMARK   59  A    between atoms: _133  and  _134
REMARK   60  A    between atoms: _133  and  _136
REMARK   61  A    between atoms: _136  and  _137
REMARK   62  A    between atoms: _142  and  _144
REMARK   63  A    between atoms: _144  and  _145
REMARK   64  A    between atoms: _144  and  _147
REMARK   65  A    between atoms: _147  and  _148
REMARK   66  A    between atoms: _151  and  _153
REMARK   67  A    between atoms: _153  and  _154
REMARK   68  A    between atoms: _153  and  _156
REMARK   69  A    between atoms: _156  and  _157
REMARK   70  A    between atoms: _160  and  _162
REMARK   71  A    between atoms: _162  and  _163
REMARK   72  A    between atoms: _162  and  _165
REMARK   73  A    between atoms: _165  and  _166
REMARK   74  A    between atoms: _166  and  _167
REMARK   75  A    between atoms: _170  and  _172
REMARK   76  A    between atoms: _172  and  _173
REMARK   77  A    between atoms: _172  and  _175
REMARK   78  A    between atoms: _175  and  _176
REMARK   79  A    between atoms: _176  and  _177
REMARK   80  A    between atoms: _179  and  _181
REMARK   81  A    between atoms: _181  and  _182
REMARK   82  A    between atoms: _181  and  _184
REMARK   83  A    between atoms: _184  and  _185
REMARK   84  A    between atoms: _187  and  _189
REMARK   85  A    between atoms: _189  and  _190
REMARK   86  A    between atoms: _189  and  _192
REMARK   87  A    between atoms: _192  and  _193
REMARK   88  A    between atoms: _198  and  _200
REMARK   89  A    between atoms: _200  and  _201
REMARK   90  A    between atoms: _204  and  _206
REMARK   91  A    between atoms: _206  and  _207
REMARK   92  A    between atoms: _206  and  _209
REMARK   93  A    between atoms: _209  and  _210
REMARK   94  A    between atoms: _213  and  _215
REMARK   95  A    between atoms: _215  and  _216
REMARK   96  A    between atoms: _215  and  _218
REMARK   97  A    between atoms: _221  and  _223
REMARK   98  A    between atoms: _223  and  _224
REMARK   99  A    between atoms: _227  and  _228
REMARK  100  A    between atoms: _233  and  _235
REMARK  101  A    between atoms: _235  and  _236
REMARK  102  A    between atoms: _235  and  _238
REMARK  103  A    between atoms: _238  and  _239
REMARK  104  A    between atoms: _241  and  _243
REMARK  105  A    between atoms: _243  and  _244
REMARK  106  A    between atoms: _243  and  _246
REMARK  107  A    between atoms: _246  and  _247
REMARK  108  A    between atoms: _250  and  _252
REMARK  109  A    between atoms: _252  and  _253
REMARK  110  A    between atoms: _252  and  _255
REMARK  111  A    between atoms: _255  and  _256
REMARK  112  A    between atoms: _256  and  _257
REMARK  113  A    between atoms: _257  and  _258
REMARK  114  A    between atoms: _267  and  _269
REMARK  115  A    between atoms: _269  and  _270
REMARK  116  A    between atoms: _269  and  _272
REMARK  117  A    between atoms: _272  and  _273
REMARK  118  A    between atoms: _276  and  _277
REMARK  119  A    between atoms: _282  and  _284
REMARK  120  A    between atoms: _284  and  _285
REMARK  121  A    between atoms: _287  and  _289
REMARK  122  A    between atoms: _289  and  _290
REMARK  123  A    between atoms: _289  and  _292
REMARK  124  A    between atoms: _295  and  _297
REMARK  125  A    between atoms: _297  and  _298
REMARK  126  A    between atoms: _300  and  _302
REMARK  127  A    between atoms: _302  and  _303
REMARK  128  A    between atoms: _306  and  _308
REMARK  129  A    between atoms: _308  and  _309
REMARK  130  A    between atoms: _308  and  _311
REMARK  131  A    between atoms: _311  and  _312
REMARK  132  A    between atoms: _312  and  _313
REMARK  133  A    between atoms: _318  and  _320
REMARK  134  A    between atoms: _320  and  _321
REMARK  135  A    between atoms: _323  and  _325
REMARK  136  A    between atoms: _325  and  _326
REMARK  137  A    between atoms: _328  and  _330
REMARK  138  A    between atoms: _330  and  _331
REMARK  139  A    between atoms: _330  and  _333
REMARK  140  A    between atoms: _333  and  _334
REMARK  141  A    between atoms: _337  and  _339
REMARK  142  A    between atoms: _339  and  _340
REMARK  143  A    between atoms: _339  and  _342
REMARK  144  A    between atoms: _345  and  _347
REMARK  145  A    between atoms: _347  and  _348
REMARK  146  A    between atoms: _350  and  _352
REMARK  147  A    between atoms: _352  and  _353
REMARK  148  A    between atoms: _352  and  _355
REMARK  149  A    between atoms: _355  and  _356
REMARK  150  A    between atoms: _356  and  _357
REMARK  151  A    between atoms: _357  and  _358
REMARK  152  A    between atoms: _367  and  _369
REMARK  153  A    between atoms: _369  and  _370
REMARK  154  A    between atoms: _369  and  _372
REMARK  155  A    between atoms: _372  and  _373
REMARK  156  A    between atoms: _375  and  _377
REMARK  157  A    between atoms: _377  and  _378
REMARK  158  A    between atoms: _377  and  _380
REMARK  159  A    between atoms: _380  and  _381
REMARK  160  A    between atoms: _384  and  _386
REMARK  161  A    between atoms: _386  and  _387
REMARK  162  A    between atoms: _386  and  _389
REMARK  163  A    between atoms: _389  and  _390
REMARK  164  A    between atoms: _395  and  _396
REMARK  165  A    between atoms: _398  and  _400
REMARK  166  A    between atoms: _400  and  _401
REMARK  167  A    between atoms: _400  and  _403
REMARK  168  A    between atoms: _403  and  _404
REMARK  169  A    between atoms: _407  and  _409
REMARK  170  A    between atoms: _409  and  _410
REMARK  171  A    between atoms: _413  and  _415
REMARK  172  A    between atoms: _415  and  _416
REMARK  173  A    between atoms: _415  and  _418
REMARK  174  A    between atoms: _418  and  _419
REMARK  175  A    between atoms: _422  and  _424
REMARK  176  A    between atoms: _424  and  _425
REMARK  177  A    between atoms: _424  and  _427
REMARK  178  A    between atoms: _427  and  _428
REMARK  179  A    between atoms: _432  and  _433
REMARK  180  A    between atoms: _438  and  _440
REMARK  181  A    between atoms: _440  and  _441
REMARK  182  A    between atoms: _440  and  _443
REMARK  183  A    between atoms: _443  and  _444
REMARK  184  A    between atoms: _444  and  _445
REMARK  185  A    between atoms: _448  and  _450
REMARK  186  A    between atoms: _450  and  _451
REMARK  187  A    between atoms: _450  and  _453
REMARK  188  A    between atoms: _453  and  _454
REMARK  189  A    between atoms: _457  and  _459
REMARK  190  A    between atoms: _459  and  _460
REMARK  191  A    between atoms: _459  and  _462
REMARK  192  A    between atoms: _462  and  _463
REMARK  193  A    between atoms: _468  and  _470
REMARK  194  A    between atoms: _470  and  _471
REMARK  195  A    between atoms: _470  and  _473
REMARK  196  A    between atoms: _473  and  _474
REMARK  197  A    between atoms: _474  and  _475
REMARK  198  A    between atoms: _475  and  _476
REMARK  199  A    between atoms: _476  and  _477
REMARK  200  A    between atoms: _481  and  _483
REMARK  201  A    between atoms: _483  and  _484
REMARK  202  A    between atoms: _483  and  _486
REMARK  203  A    between atoms: _486  and  _487
REMARK                            x       y       z     vdW  Elec       q    Type
REMARK                         _______ _______ _______ _____ _____    ______ ____
ROOT
ATOM      1  O   HOH     1      23.712  40.153  34.439  0.00  0.00    +0.000 OA
ENDROOT
TORSDOF 0
REMARK  Name = ../refined-set-2016/3w07/3w07_pocket.pdb
REMARK  203 active torsions:
REMARK  status: ('A' for Active; 'I' for Inactive)
REMARK    1  A    between atoms: _1  and  _3
REMARK    2  A    between atoms: _3  and  _4
REMARK    3  A    between atoms: _3  and  _6
REMARK    4  A    between atoms: _6  and  _7
REMARK    5  A    between atoms: _10  and  _12
REMARK    6  A    between atoms: _12  and  _13
REMARK    7  A    between atoms: _12  and  _15
REMARK    8  A    between atoms: _15  and  _16
REMARK    9  A    between atoms: _19  and  _21
REMARK   10  A    between atoms: _21  and  _22
REMARK   11  A    between atoms: _25  and  _27
REMARK   12  A    between atoms: _27  and  _28
REMARK   13  A    between atoms: _27  and  _30
REMARK   14  A    between atoms: _30  and  _31
REMARK   15  A    between atoms: _31  and  _32
REMARK   16  A    between atoms: _34  and  _36
REMARK   17  A    between atoms: _36  and  _37
REMARK   18  A    between atoms: _36  and  _39
REMARK   19  A    between atoms: _39  and  _40
REMARK   20  A    between atoms: _43  and  _45
REMARK   21  A    between atoms: _45  and  _46
REMARK   22  A    between atoms: _45  and  _48
REMARK   23  A    between atoms: _48  and  _49
REMARK   24  A    between atoms: _49  and  _50
REMARK   25  A    between atoms: _50  and  _51
REMARK   26  A    between atoms: _51  and  _52
REMARK   27  A    between atoms: _56  and  _58
REMARK   28  A    between atoms: _58  and  _59
REMARK   29  A    between atoms: _58  and  _61
REMARK   30  A    between atoms: _61  and  _62
REMARK   31  A    between atoms: _65  and  _67
REMARK   32  A    between atoms: _67  and  _68
REMARK   33  A    between atoms: _70  and  _72
REMARK   34  A    between atoms: _72  and  _73
REMARK   35  A    between atoms: _72  and  _75
REMARK   36  A    between atoms: _75  and  _76
REMARK   37  A    between atoms: _81  and  _82
REMARK   38  A    between atoms: _85  and  _86
REMARK   39  A    between atoms: _91  and  _93
REMARK   40  A    between atoms: _93  and  _94
REMARK   41  A    between atoms: _93  and  _96
REMARK   42  A    between atoms: _96  and  _97
REMARK   43  A    between atoms: _100  and  _102
REMARK   44  A    between atoms: _102  and  _103
REMARK   45  A    between atoms: _102  and  _105
REMARK   46  A    between atoms: _105  and  _106
REMARK   47  A    between atoms: _109  and  _111
REMARK   48  A    between atoms: _111  and  _112
REMARK   49  A    between atoms: _111  and  _114
REMARK   50  A    between atoms: _114  and  _115
REMARK   51  A    between atoms: _115  and  _116
REMARK   52  A    between atoms: _116  and  _117
REMARK   53  A    between atoms: _117  and  _118
REMARK   54  A    between atoms: _122  and  _124
REMARK   55  A    between atoms: _124  and  _125
REMARK   56  A    between atoms: _124  and  _127
REMARK   57  A    between atoms: _127  and  _128
REMARK   58  A    between atoms: _131  and  _133
REMARK   59  A    between atoms: _133  and  _134
REMARK   60  A    between atoms: _133  and  _136
REMARK   61  A    between atoms: _136  and  _137
REMARK   62  A    between atoms: _142  and  _144
REMARK   63  A    between atoms: _144  and  _145
REMARK   64  A    between atoms: _144  and  _147
REMARK   65  A    between atoms: _147  and  _148
REMARK   66  A    between atoms: _151  and  _153
REMARK   67  A    between atoms: _153  and  _154
REMARK   68  A    between atoms: _153  and  _156
REMARK   69  A    between atoms: _156  and  _157
REMARK   70  A    between atoms: _160  and  _162
REMARK   71  A    between atoms: _162  and  _163
REMARK   72  A    between atoms: _162  and  _165
REMARK   73  A    between atoms: _165  and  _166
REMARK   74  A    between atoms: _166  and  _167
REMARK   75  A    between atoms: _170  and  _172
REMARK   76  A    between atoms: _172  and  _173
REMARK   77  A    between atoms: _172  and  _175
REMARK   78  A    between atoms: _175  and  _176
REMARK   79  A    between atoms: _176  and  _177
REMARK   80  A    between atoms: _179  and  _181
REMARK   81  A    between atoms: _181  and  _182
REMARK   82  A    between atoms: _181  and  _184
REMARK   83  A    between atoms: _184  and  _185
REMARK   84  A    between atoms: _187  and  _189
REMARK   85  A    between atoms: _189  and  _190
REMARK   86  A    between atoms: _189  and  _192
REMARK   87  A    between atoms: _192  and  _193
REMARK   88  A    between atoms: _198  and  _200
REMARK   89  A    between atoms: _200  and  _201
REMARK   90  A    between atoms: _204  and  _206
REMARK   91  A    between atoms: _206  and  _207
REMARK   92  A    between atoms: _206  and  _209
REMARK   93  A    between atoms: _209  and  _210
REMARK   94  A    between atoms: _213  and  _215
REMARK   95  A    between atoms: _215  and  _216
REMARK   96  A    between atoms: _215  and  _218
REMARK   97  A    between atoms: _221  and  _223
REMARK   98  A    between atoms: _223  and  _224
REMARK   99  A    between atoms: _227  and  _228
REMARK  100  A    between atoms: _233  and  _235
REMARK  101  A    between atoms: _235  and  _236
REMARK  102  A    between atoms: _235  and  _238
REMARK  103  A    between atoms: _238  and  _239
REMARK  104  A    between atoms: _241  and  _243
REMARK  105  A    between atoms: _243  and  _244
REMARK  106  A    between atoms: _243  and  _246
REMARK  107  A    between atoms: _246  and  _247
REMARK  108  A    between atoms: _250  and  _252
REMARK  109  A    between atoms: _252  and  _253
REMARK  110  A    between atoms: _252  and  _255
REMARK  111  A    between atoms: _255  and  _256
REMARK  112  A    between atoms: _256  and  _257
REMARK  113  A    between atoms: _257  and  _258
REMARK  114  A    between atoms: _267  and  _269
REMARK  115  A    between atoms: _269  and  _270
REMARK  116  A    between atoms: _269  and  _272
REMARK  117  A    between atoms: _272  and  _273
REMARK  118  A    between atoms: _276  and  _277
REMARK  119  A    between atoms: _282  and  _284
REMARK  120  A    between atoms: _284  and  _285
REMARK  121  A    between atoms: _287  and  _289
REMARK  122  A    between atoms: _289  and  _290
REMARK  123  A    between atoms: _289  and  _292
REMARK  124  A    between atoms: _295  and  _297
REMARK  125  A    between atoms: _297  and  _298
REMARK  126  A    between atoms: _300  and  _302
REMARK  127  A    between atoms: _302  and  _303
REMARK  128  A    between atoms: _306  and  _308
REMARK  129  A    between atoms: _308  and  _309
REMARK  130  A    between atoms: _308  and  _311
REMARK  131  A    between atoms: _311  and  _312
REMARK  132  A    between atoms: _312  and  _313
REMARK  133  A    between atoms: _318  and  _320
REMARK  134  A    between atoms: _320  and  _321
REMARK  135  A    between atoms: _323  and  _325
REMARK  136  A    between atoms: _325  and  _326
REMARK  137  A    between atoms: _328  and  _330
REMARK  138  A    between atoms: _330  and  _331
REMARK  139  A    between atoms: _330  and  _333
REMARK  140  A    between atoms: _333  and  _334
REMARK  141  A    between atoms: _337  and  _339
REMARK  142  A    between atoms: _339  and  _340
REMARK  143  A    between atoms: _339  and  _342
REMARK  144  A    between atoms: _345  and  _347
REMARK  145  A    between atoms: _347  and  _348
REMARK  146  A    between atoms: _350  and  _352
REMARK  147  A    between atoms: _352  and  _353
REMARK  148  A    between atoms: _352  and  _355
REMARK  149  A    between atoms: _355  and  _356
REMARK  150  A    between atoms: _356  and  _357
REMARK  151  A    between atoms: _357  and  _358
REMARK  152  A    between atoms: _367  and  _369
REMARK  153  A    between atoms: _369  and  _370
REMARK  154  A    between atoms: _369  and  _372
REMARK  155  A    between atoms: _372  and  _373
REMARK  156  A    between atoms: _375  and  _377
REMARK  157  A    between atoms: _377  and  _378
REMARK  158  A    between atoms: _377  and  _380
REMARK  159  A    between atoms: _380  and  _381
REMARK  160  A    between atoms: _384  and  _386
REMARK  161  A    between atoms: _386  and  _387
REMARK  162  A    between atoms: _386  and  _389
REMARK  163  A    between atoms: _389  and  _390
REMARK  164  A    between atoms: _395  and  _396
REMARK  165  A    between atoms: _398  and  _400
REMARK  166  A    between atoms: _400  and  _401
REMARK  167  A    between atoms: _400  and  _403
REMARK  168  A    between atoms: _403  and  _404
REMARK  169  A    between atoms: _407  and  _409
REMARK  170  A    between atoms: _409  and  _410
REMARK  171  A    between atoms: _413  and  _415
REMARK  172  A    between atoms: _415  and  _416
REMARK  173  A    between atoms: _415  and  _418
REMARK  174  A    between atoms: _418  and  _419
REMARK  175  A    between atoms: _422  and  _424
REMARK  176  A    between atoms: _424  and  _425
REMARK  177  A    between atoms: _424  and  _427
REMARK  178  A    between atoms: _427  and  _428
REMARK  179  A    between atoms: _432  and  _433
REMARK  180  A    between atoms: _438  and  _440
REMARK  181  A    between atoms: _440  and  _441
REMARK  182  A    between atoms: _440  and  _443
REMARK  183  A    between atoms: _443  and  _444
REMARK  184  A    between atoms: _444  and  _445
REMARK  185  A    between atoms: _448  and  _450
REMARK  186  A    between atoms: _450  and  _451
REMARK  187  A    between atoms: _450  and  _453
REMARK  188  A    between atoms: _453  and  _454
REMARK  189  A    between atoms: _457  and  _459
REMARK  190  A    between atoms: _459  and  _460
REMARK  191  A    between atoms: _459  and  _462
REMARK  192  A    between atoms: _462  and  _463
REMARK  193  A    between atoms: _468  and  _470
REMARK  194  A    between atoms: _470  and  _471
REMARK  195  A    between atoms: _470  and  _473
REMARK  196  A    between atoms: _473  and  _474
REMARK  197  A    between atoms: _474  and  _475
REMARK  198  A    between atoms: _475  and  _476
REMARK  199  A    between atoms: _476  and  _477
REMARK  200  A    between atoms: _481  and  _483
REMARK  201  A    between atoms: _483  and  _484
REMARK  202  A    between atoms: _483  and  _486
REMARK  203  A    between atoms: _486  and  _487
REMARK                            x       y       z     vdW  Elec       q    Type
REMARK                         _______ _______ _______ _____ _____    ______ ____
ROOT
ATOM      1  O   HOH     1      19.893  46.836  37.438  0.00  0.00    +0.000 OA
ENDROOT
TORSDOF 0
REMARK  Name = ../refined-set-2016/3w07/3w07_pocket.pdb
REMARK  203 active torsions:
REMARK  status: ('A' for Active; 'I' for Inactive)
REMARK    1  A    between atoms: _1  and  _3
REMARK    2  A    between atoms: _3  and  _4
REMARK    3  A    between atoms: _3  and  _6
REMARK    4  A    between atoms: _6  and  _7
REMARK    5  A    between atoms: _10  and  _12
REMARK    6  A    between atoms: _12  and  _13
REMARK    7  A    between atoms: _12  and  _15
REMARK    8  A    between atoms: _15  and  _16
REMARK    9  A    between atoms: _19  and  _21
REMARK   10  A    between atoms: _21  and  _22
REMARK   11  A    between atoms: _25  and  _27
REMARK   12  A    between atoms: _27  and  _28
REMARK   13  A    between atoms: _27  and  _30
REMARK   14  A    between atoms: _30  and  _31
REMARK   15  A    between atoms: _31  and  _32
REMARK   16  A    between atoms: _34  and  _36
REMARK   17  A    between atoms: _36  and  _37
REMARK   18  A    between atoms: _36  and  _39
REMARK   19  A    between atoms: _39  and  _40
REMARK   20  A    between atoms: _43  and  _45
REMARK   21  A    between atoms: _45  and  _46
REMARK   22  A    between atoms: _45  and  _48
REMARK   23  A    between atoms: _48  and  _49
REMARK   24  A    between atoms: _49  and  _50
REMARK   25  A    between atoms: _50  and  _51
REMARK   26  A    between atoms: _51  and  _52
REMARK   27  A    between atoms: _56  and  _58
REMARK   28  A    between atoms: _58  and  _59
REMARK   29  A    between atoms: _58  and  _61
REMARK   30  A    between atoms: _61  and  _62
REMARK   31  A    between atoms: _65  and  _67
REMARK   32  A    between atoms: _67  and  _68
REMARK   33  A    between atoms: _70  and  _72
REMARK   34  A    between atoms: _72  and  _73
REMARK   35  A    between atoms: _72  and  _75
REMARK   36  A    between atoms: _75  and  _76
REMARK   37  A    between atoms: _81  and  _82
REMARK   38  A    between atoms: _85  and  _86
REMARK   39  A    between atoms: _91  and  _93
REMARK   40  A    between atoms: _93  and  _94
REMARK   41  A    between atoms: _93  and  _96
REMARK   42  A    between atoms: _96  and  _97
REMARK   43  A    between atoms: _100  and  _102
REMARK   44  A    between atoms: _102  and  _103
REMARK   45  A    between atoms: _102  and  _105
REMARK   46  A    between atoms: _105  and  _106
REMARK   47  A    between atoms: _109  and  _111
REMARK   48  A    between atoms: _111  and  _112
REMARK   49  A    between atoms: _111  and  _114
REMARK   50  A    between atoms: _114  and  _115
REMARK   51  A    between atoms: _115  and  _116
REMARK   52  A    between atoms: _116  and  _117
REMARK   53  A    between atoms: _117  and  _118
REMARK   54  A    between atoms: _122  and  _124
REMARK   55  A    between atoms: _124  and  _125
REMARK   56  A    between atoms: _124  and  _127
REMARK   57  A    between atoms: _127  and  _128
REMARK   58  A    between atoms: _131  and  _133
REMARK   59  A    between atoms: _133  and  _134
REMARK   60  A    between atoms: _133  and  _136
REMARK   61  A    between atoms: _136  and  _137
REMARK   62  A    between atoms: _142  and  _144
REMARK   63  A    between atoms: _144  and  _145
REMARK   64  A    between atoms: _144  and  _147
REMARK   65  A    between atoms: _147  and  _148
REMARK   66  A    between atoms: _151  and  _153
REMARK   67  A    between atoms: _153  and  _154
REMARK   68  A    between atoms: _153  and  _156
REMARK   69  A    between atoms: _156  and  _157
REMARK   70  A    between atoms: _160  and  _162
REMARK   71  A    between atoms: _162  and  _163
REMARK   72  A    between atoms: _162  and  _165
REMARK   73  A    between atoms: _165  and  _166
REMARK   74  A    between atoms: _166  and  _167
REMARK   75  A    between atoms: _170  and  _172
REMARK   76  A    between atoms: _172  and  _173
REMARK   77  A    between atoms: _172  and  _175
REMARK   78  A    between atoms: _175  and  _176
REMARK   79  A    between atoms: _176  and  _177
REMARK   80  A    between atoms: _179  and  _181
REMARK   81  A    between atoms: _181  and  _182
REMARK   82  A    between atoms: _181  and  _184
REMARK   83  A    between atoms: _184  and  _185
REMARK   84  A    between atoms: _187  and  _189
REMARK   85  A    between atoms: _189  and  _190
REMARK   86  A    between atoms: _189  and  _192
REMARK   87  A    between atoms: _192  and  _193
REMARK   88  A    between atoms: _198  and  _200
REMARK   89  A    between atoms: _200  and  _201
REMARK   90  A    between atoms: _204  and  _206
REMARK   91  A    between atoms: _206  and  _207
REMARK   92  A    between atoms: _206  and  _209
REMARK   93  A    between atoms: _209  and  _210
REMARK   94  A    between atoms: _213  and  _215
REMARK   95  A    between atoms: _215  and  _216
REMARK   96  A    between atoms: _215  and  _218
REMARK   97  A    between atoms: _221  and  _223
REMARK   98  A    between atoms: _223  and  _224
REMARK   99  A    between atoms: _227  and  _228
REMARK  100  A    between atoms: _233  and  _235
REMARK  101  A    between atoms: _235  and  _236
REMARK  102  A    between atoms: _235  and  _238
REMARK  103  A    between atoms: _238  and  _239
REMARK  104  A    between atoms: _241  and  _243
REMARK  105  A    between atoms: _243  and  _244
REMARK  106  A    between atoms: _243  and  _246
REMARK  107  A    between atoms: _246  and  _247
REMARK  108  A    between atoms: _250  and  _252
REMARK  109  A    between atoms: _252  and  _253
REMARK  110  A    between atoms: _252  and  _255
REMARK  111  A    between atoms: _255  and  _256
REMARK  112  A    between atoms: _256  and  _257
REMARK  113  A    between atoms: _257  and  _258
REMARK  114  A    between atoms: _267  and  _269
REMARK  115  A    between atoms: _269  and  _270
REMARK  116  A    between atoms: _269  and  _272
REMARK  117  A    between atoms: _272  and  _273
REMARK  118  A    between atoms: _276  and  _277
REMARK  119  A    between atoms: _282  and  _284
REMARK  120  A    between atoms: _284  and  _285
REMARK  121  A    between atoms: _287  and  _289
REMARK  122  A    between atoms: _289  and  _290
REMARK  123  A    between atoms: _289  and  _292
REMARK  124  A    between atoms: _295  and  _297
REMARK  125  A    between atoms: _297  and  _298
REMARK  126  A    between atoms: _300  and  _302
REMARK  127  A    between atoms: _302  and  _303
REMARK  128  A    between atoms: _306  and  _308
REMARK  129  A    between atoms: _308  and  _309
REMARK  130  A    between atoms: _308  and  _311
REMARK  131  A    between atoms: _311  and  _312
REMARK  132  A    between atoms: _312  and  _313
REMARK  133  A    between atoms: _318  and  _320
REMARK  134  A    between atoms: _320  and  _321
REMARK  135  A    between atoms: _323  and  _325
REMARK  136  A    between atoms: _325  and  _326
REMARK  137  A    between atoms: _328  and  _330
REMARK  138  A    between atoms: _330  and  _331
REMARK  139  A    between atoms: _330  and  _333
REMARK  140  A    between atoms: _333  and  _334
REMARK  141  A    between atoms: _337  and  _339
REMARK  142  A    between atoms: _339  and  _340
REMARK  143  A    between atoms: _339  and  _342
REMARK  144  A    between atoms: _345  and  _347
REMARK  145  A    between atoms: _347  and  _348
REMARK  146  A    between atoms: _350  and  _352
REMARK  147  A    between atoms: _352  and  _353
REMARK  148  A    between atoms: _352  and  _355
REMARK  149  A    between atoms: _355  and  _356
REMARK  150  A    between atoms: _356  and  _357
REMARK  151  A    between atoms: _357  and  _358
REMARK  152  A    between atoms: _367  and  _369
REMARK  153  A    between atoms: _369  and  _370
REMARK  154  A    between atoms: _369  and  _372
REMARK  155  A    between atoms: _372  and  _373
REMARK  156  A    between atoms: _375  and  _377
REMARK  157  A    between atoms: _377  and  _378
REMARK  158  A    between atoms: _377  and  _380
REMARK  159  A    between atoms: _380  and  _381
REMARK  160  A    between atoms: _384  and  _386
REMARK  161  A    between atoms: _386  and  _387
REMARK  162  A    between atoms: _386  and  _389
REMARK  163  A    between atoms: _389  and  _390
REMARK  164  A    between atoms: _395  and  _396
REMARK  165  A    between atoms: _398  and  _400
REMARK  166  A    between atoms: _400  and  _401
REMARK  167  A    between atoms: _400  and  _403
REMARK  168  A    between atoms: _403  and  _404
REMARK  169  A    between atoms: _407  and  _409
REMARK  170  A    between atoms: _409  and  _410
REMARK  171  A    between atoms: _413  and  _415
REMARK  172  A    between atoms: _415  and  _416
REMARK  173  A    between atoms: _415  and  _418
REMARK  174  A    between atoms: _418  and  _419
REMARK  175  A    between atoms: _422  and  _424
REMARK  176  A    between atoms: _424  and  _425
REMARK  177  A    between atoms: _424  and  _427
REMARK  178  A    between atoms: _427  and  _428
REMARK  179  A    between atoms: _432  and  _433
REMARK  180  A    between atoms: _438  and  _440
REMARK  181  A    between atoms: _440  and  _441
REMARK  182  A    between atoms: _440  and  _443
REMARK  183  A    between atoms: _443  and  _444
REMARK  184  A    between atoms: _444  and  _445
REMARK  185  A    between atoms: _448  and  _450
REMARK  186  A    between atoms: _450  and  _451
REMARK  187  A    between atoms: _450  and  _453
REMARK  188  A    between atoms: _453  and  _454
REMARK  189  A    between atoms: _457  and  _459
REMARK  190  A    between atoms: _459  and  _460
REMARK  191  A    between atoms: _459  and  _462
REMARK  192  A    between atoms: _462  and  _463
REMARK  193  A    between atoms: _468  and  _470
REMARK  194  A    between atoms: _470  and  _471
REMARK  195  A    between atoms: _470  and  _473
REMARK  196  A    between atoms: _473  and  _474
REMARK  197  A    between atoms: _474  and  _475
REMARK  198  A    between atoms: _475  and  _476
REMARK  199  A    between atoms: _476  and  _477
REMARK  200  A    between atoms: _481  and  _483
REMARK  201  A    between atoms: _483  and  _484
REMARK  202  A    between atoms: _483  and  _486
REMARK  203  A    between atoms: _486  and  _487
REMARK                            x       y       z     vdW  Elec       q    Type
REMARK                         _______ _______ _______ _____ _____    ______ ____
ROOT
ATOM      1  O   HOH     1      21.893  42.288  36.773  0.00  0.00    +0.000 OA
ENDROOT
TORSDOF 0
REMARK  Name = ../refined-set-2016/3w07/3w07_pocket.pdb
REMARK  203 active torsions:
REMARK  status: ('A' for Active; 'I' for Inactive)
REMARK    1  A    between atoms: _1  and  _3
REMARK    2  A    between atoms: _3  and  _4
REMARK    3  A    between atoms: _3  and  _6
REMARK    4  A    between atoms: _6  and  _7
REMARK    5  A    between atoms: _10  and  _12
REMARK    6  A    between atoms: _12  and  _13
REMARK    7  A    between atoms: _12  and  _15
REMARK    8  A    between atoms: _15  and  _16
REMARK    9  A    between atoms: _19  and  _21
REMARK   10  A    between atoms: _21  and  _22
REMARK   11  A    between atoms: _25  and  _27
REMARK   12  A    between atoms: _27  and  _28
REMARK   13  A    between atoms: _27  and  _30
REMARK   14  A    between atoms: _30  and  _31
REMARK   15  A    between atoms: _31  and  _32
REMARK   16  A    between atoms: _34  and  _36
REMARK   17  A    between atoms: _36  and  _37
REMARK   18  A    between atoms: _36  and  _39
REMARK   19  A    between atoms: _39  and  _40
REMARK   20  A    between atoms: _43  and  _45
REMARK   21  A    between atoms: _45  and  _46
REMARK   22  A    between atoms: _45  and  _48
REMARK   23  A    between atoms: _48  and  _49
REMARK   24  A    between atoms: _49  and  _50
REMARK   25  A    between atoms: _50  and  _51
REMARK   26  A    between atoms: _51  and  _52
REMARK   27  A    between atoms: _56  and  _58
REMARK   28  A    between atoms: _58  and  _59
REMARK   29  A    between atoms: _58  and  _61
REMARK   30  A    between atoms: _61  and  _62
REMARK   31  A    between atoms: _65  and  _67
REMARK   32  A    between atoms: _67  and  _68
REMARK   33  A    between atoms: _70  and  _72
REMARK   34  A    between atoms: _72  and  _73
REMARK   35  A    between atoms: _72  and  _75
REMARK   36  A    between atoms: _75  and  _76
REMARK   37  A    between atoms: _81  and  _82
REMARK   38  A    between atoms: _85  and  _86
REMARK   39  A    between atoms: _91  and  _93
REMARK   40  A    between atoms: _93  and  _94
REMARK   41  A    between atoms: _93  and  _96
REMARK   42  A    between atoms: _96  and  _97
REMARK   43  A    between atoms: _100  and  _102
REMARK   44  A    between atoms: _102  and  _103
REMARK   45  A    between atoms: _102  and  _105
REMARK   46  A    between atoms: _105  and  _106
REMARK   47  A    between atoms: _109  and  _111
REMARK   48  A    between atoms: _111  and  _112
REMARK   49  A    between atoms: _111  and  _114
REMARK   50  A    between atoms: _114  and  _115
REMARK   51  A    between atoms: _115  and  _116
REMARK   52  A    between atoms: _116  and  _117
REMARK   53  A    between atoms: _117  and  _118
REMARK   54  A    between atoms: _122  and  _124
REMARK   55  A    between atoms: _124  and  _125
REMARK   56  A    between atoms: _124  and  _127
REMARK   57  A    between atoms: _127  and  _128
REMARK   58  A    between atoms: _131  and  _133
REMARK   59  A    between atoms: _133  and  _134
REMARK   60  A    between atoms: _133  and  _136
REMARK   61  A    between atoms: _136  and  _137
REMARK   62  A    between atoms: _142  and  _144
REMARK   63  A    between atoms: _144  and  _145
REMARK   64  A    between atoms: _144  and  _147
REMARK   65  A    between atoms: _147  and  _148
REMARK   66  A    between atoms: _151  and  _153
REMARK   67  A    between atoms: _153  and  _154
REMARK   68  A    between atoms: _153  and  _156
REMARK   69  A    between atoms: _156  and  _157
REMARK   70  A    between atoms: _160  and  _162
REMARK   71  A    between atoms: _162  and  _163
REMARK   72  A    between atoms: _162  and  _165
REMARK   73  A    between atoms: _165  and  _166
REMARK   74  A    between atoms: _166  and  _167
REMARK   75  A    between atoms: _170  and  _172
REMARK   76  A    between atoms: _172  and  _173
REMARK   77  A    between atoms: _172  and  _175
REMARK   78  A    between atoms: _175  and  _176
REMARK   79  A    between atoms: _176  and  _177
REMARK   80  A    between atoms: _179  and  _181
REMARK   81  A    between atoms: _181  and  _182
REMARK   82  A    between atoms: _181  and  _184
REMARK   83  A    between atoms: _184  and  _185
REMARK   84  A    between atoms: _187  and  _189
REMARK   85  A    between atoms: _189  and  _190
REMARK   86  A    between atoms: _189  and  _192
REMARK   87  A    between atoms: _192  and  _193
REMARK   88  A    between atoms: _198  and  _200
REMARK   89  A    between atoms: _200  and  _201
REMARK   90  A    between atoms: _204  and  _206
REMARK   91  A    between atoms: _206  and  _207
REMARK   92  A    between atoms: _206  and  _209
REMARK   93  A    between atoms: _209  and  _210
REMARK   94  A    between atoms: _213  and  _215
REMARK   95  A    between atoms: _215  and  _216
REMARK   96  A    between atoms: _215  and  _218
REMARK   97  A    between atoms: _221  and  _223
REMARK   98  A    between atoms: _223  and  _224
REMARK   99  A    between atoms: _227  and  _228
REMARK  100  A    between atoms: _233  and  _235
REMARK  101  A    between atoms: _235  and  _236
REMARK  102  A    between atoms: _235  and  _238
REMARK  103  A    between atoms: _238  and  _239
REMARK  104  A    between atoms: _241  and  _243
REMARK  105  A    between atoms: _243  and  _244
REMARK  106  A    between atoms: _243  and  _246
REMARK  107  A    between atoms: _246  and  _247
REMARK  108  A    between atoms: _250  and  _252
REMARK  109  A    between atoms: _252  and  _253
REMARK  110  A    between atoms: _252  and  _255
REMARK  111  A    between atoms: _255  and  _256
REMARK  112  A    between atoms: _256  and  _257
REMARK  113  A    between atoms: _257  and  _258
REMARK  114  A    between atoms: _267  and  _269
REMARK  115  A    between atoms: _269  and  _270
REMARK  116  A    between atoms: _269  and  _272
REMARK  117  A    between atoms: _272  and  _273
REMARK  118  A    between atoms: _276  and  _277
REMARK  119  A    between atoms: _282  and  _284
REMARK  120  A    between atoms: _284  and  _285
REMARK  121  A    between atoms: _287  and  _289
REMARK  122  A    between atoms: _289  and  _290
REMARK  123  A    between atoms: _289  and  _292
REMARK  124  A    between atoms: _295  and  _297
REMARK  125  A    between atoms: _297  and  _298
REMARK  126  A    between atoms: _300  and  _302
REMARK  127  A    between atoms: _302  and  _303
REMARK  128  A    between atoms: _306  and  _308
REMARK  129  A    between atoms: _308  and  _309
REMARK  130  A    between atoms: _308  and  _311
REMARK  131  A    between atoms: _311  and  _312
REMARK  132  A    between atoms: _312  and  _313
REMARK  133  A    between atoms: _318  and  _320
REMARK  134  A    between atoms: _320  and  _321
REMARK  135  A    between atoms: _323  and  _325
REMARK  136  A    between atoms: _325  and  _326
REMARK  137  A    between atoms: _328  and  _330
REMARK  138  A    between atoms: _330  and  _331
REMARK  139  A    between atoms: _330  and  _333
REMARK  140  A    between atoms: _333  and  _334
REMARK  141  A    between atoms: _337  and  _339
REMARK  142  A    between atoms: _339  and  _340
REMARK  143  A    between atoms: _339  and  _342
REMARK  144  A    between atoms: _345  and  _347
REMARK  145  A    between atoms: _347  and  _348
REMARK  146  A    between atoms: _350  and  _352
REMARK  147  A    between atoms: _352  and  _353
REMARK  148  A    between atoms: _352  and  _355
REMARK  149  A    between atoms: _355  and  _356
REMARK  150  A    between atoms: _356  and  _357
REMARK  151  A    between atoms: _357  and  _358
REMARK  152  A    between atoms: _367  and  _369
REMARK  153  A    between atoms: _369  and  _370
REMARK  154  A    between atoms: _369  and  _372
REMARK  155  A    between atoms: _372  and  _373
REMARK  156  A    between atoms: _375  and  _377
REMARK  157  A    between atoms: _377  and  _378
REMARK  158  A    between atoms: _377  and  _380
REMARK  159  A    between atoms: _380  and  _381
REMARK  160  A    between atoms: _384  and  _386
REMARK  161  A    between atoms: _386  and  _387
REMARK  162  A    between atoms: _386  and  _389
REMARK  163  A    between atoms: _389  and  _390
REMARK  164  A    between atoms: _395  and  _396
REMARK  165  A    between atoms: _398  and  _400
REMARK  166  A    between atoms: _400  and  _401
REMARK  167  A    between atoms: _400  and  _403
REMARK  168  A    between atoms: _403  and  _404
REMARK  169  A    between atoms: _407  and  _409
REMARK  170  A    between atoms: _409  and  _410
REMARK  171  A    between atoms: _413  and  _415
REMARK  172  A    between atoms: _415  and  _416
REMARK  173  A    between atoms: _415  and  _418
REMARK  174  A    between atoms: _418  and  _419
REMARK  175  A    between atoms: _422  and  _424
REMARK  176  A    between atoms: _424  and  _425
REMARK  177  A    between atoms: _424  and  _427
REMARK  178  A    between atoms: _427  and  _428
REMARK  179  A    between atoms: _432  and  _433
REMARK  180  A    between atoms: _438  and  _440
REMARK  181  A    between atoms: _440  and  _441
REMARK  182  A    between atoms: _440  and  _443
REMARK  183  A    between atoms: _443  and  _444
REMARK  184  A    between atoms: _444  and  _445
REMARK  185  A    between atoms: _448  and  _450
REMARK  186  A    between atoms: _450  and  _451
REMARK  187  A    between atoms: _450  and  _453
REMARK  188  A    between atoms: _453  and  _454
REMARK  189  A    between atoms: _457  and  _459
REMARK  190  A    between atoms: _459  and  _460
REMARK  191  A    between atoms: _459  and  _462
REMARK  192  A    between atoms: _462  and  _463
REMARK  193  A    between atoms: _468  and  _470
REMARK  194  A    between atoms: _470  and  _471
REMARK  195  A    between atoms: _470  and  _473
REMARK  196  A    between atoms: _473  and  _474
REMARK  197  A    between atoms: _474  and  _475
REMARK  198  A    between atoms: _475  and  _476
REMARK  199  A    between atoms: _476  and  _477
REMARK  200  A    between atoms: _481  and  _483
REMARK  201  A    between atoms: _483  and  _484
REMARK  202  A    between atoms: _483  and  _486
REMARK  203  A    between atoms: _486  and  _487
REMARK                            x       y       z     vdW  Elec       q    Type
REMARK                         _______ _______ _______ _____ _____    ______ ____
ROOT
ATOM      1  O   HOH     1      21.644  38.746  41.461  0.00  0.00    +0.000 OA
ENDROOT
TORSDOF 0
REMARK  Name = ../refined-set-2016/3w07/3w07_pocket.pdb
REMARK  203 active torsions:
REMARK  status: ('A' for Active; 'I' for Inactive)
REMARK    1  A    between atoms: _1  and  _3
REMARK    2  A    between atoms: _3  and  _4
REMARK    3  A    between atoms: _3  and  _6
REMARK    4  A    between atoms: _6  and  _7
REMARK    5  A    between atoms: _10  and  _12
REMARK    6  A    between atoms: _12  and  _13
REMARK    7  A    between atoms: _12  and  _15
REMARK    8  A    between atoms: _15  and  _16
REMARK    9  A    between atoms: _19  and  _21
REMARK   10  A    between atoms: _21  and  _22
REMARK   11  A    between atoms: _25  and  _27
REMARK   12  A    between atoms: _27  and  _28
REMARK   13  A    between atoms: _27  and  _30
REMARK   14  A    between atoms: _30  and  _31
REMARK   15  A    between atoms: _31  and  _32
REMARK   16  A    between atoms: _34  and  _36
REMARK   17  A    between atoms: _36  and  _37
REMARK   18  A    between atoms: _36  and  _39
REMARK   19  A    between atoms: _39  and  _40
REMARK   20  A    between atoms: _43  and  _45
REMARK   21  A    between atoms: _45  and  _46
REMARK   22  A    between atoms: _45  and  _48
REMARK   23  A    between atoms: _48  and  _49
REMARK   24  A    between atoms: _49  and  _50
REMARK   25  A    between atoms: _50  and  _51
REMARK   26  A    between atoms: _51  and  _52
REMARK   27  A    between atoms: _56  and  _58
REMARK   28  A    between atoms: _58  and  _59
REMARK   29  A    between atoms: _58  and  _61
REMARK   30  A    between atoms: _61  and  _62
REMARK   31  A    between atoms: _65  and  _67
REMARK   32  A    between atoms: _67  and  _68
REMARK   33  A    between atoms: _70  and  _72
REMARK   34  A    between atoms: _72  and  _73
REMARK   35  A    between atoms: _72  and  _75
REMARK   36  A    between atoms: _75  and  _76
REMARK   37  A    between atoms: _81  and  _82
REMARK   38  A    between atoms: _85  and  _86
REMARK   39  A    between atoms: _91  and  _93
REMARK   40  A    between atoms: _93  and  _94
REMARK   41  A    between atoms: _93  and  _96
REMARK   42  A    between atoms: _96  and  _97
REMARK   43  A    between atoms: _100  and  _102
REMARK   44  A    between atoms: _102  and  _103
REMARK   45  A    between atoms: _102  and  _105
REMARK   46  A    between atoms: _105  and  _106
REMARK   47  A    between atoms: _109  and  _111
REMARK   48  A    between atoms: _111  and  _112
REMARK   49  A    between atoms: _111  and  _114
REMARK   50  A    between atoms: _114  and  _115
REMARK   51  A    between atoms: _115  and  _116
REMARK   52  A    between atoms: _116  and  _117
REMARK   53  A    between atoms: _117  and  _118
REMARK   54  A    between atoms: _122  and  _124
REMARK   55  A    between atoms: _124  and  _125
REMARK   56  A    between atoms: _124  and  _127
REMARK   57  A    between atoms: _127  and  _128
REMARK   58  A    between atoms: _131  and  _133
REMARK   59  A    between atoms: _133  and  _134
REMARK   60  A    between atoms: _133  and  _136
REMARK   61  A    between atoms: _136  and  _137
REMARK   62  A    between atoms: _142  and  _144
REMARK   63  A    between atoms: _144  and  _145
REMARK   64  A    between atoms: _144  and  _147
REMARK   65  A    between atoms: _147  and  _148
REMARK   66  A    between atoms: _151  and  _153
REMARK   67  A    between atoms: _153  and  _154
REMARK   68  A    between atoms: _153  and  _156
REMARK   69  A    between atoms: _156  and  _157
REMARK   70  A    between atoms: _160  and  _162
REMARK   71  A    between atoms: _162  and  _163
REMARK   72  A    between atoms: _162  and  _165
REMARK   73  A    between atoms: _165  and  _166
REMARK   74  A    between atoms: _166  and  _167
REMARK   75  A    between atoms: _170  and  _172
REMARK   76  A    between atoms: _172  and  _173
REMARK   77  A    between atoms: _172  and  _175
REMARK   78  A    between atoms: _175  and  _176
REMARK   79  A    between atoms: _176  and  _177
REMARK   80  A    between atoms: _179  and  _181
REMARK   81  A    between atoms: _181  and  _182
REMARK   82  A    between atoms: _181  and  _184
REMARK   83  A    between atoms: _184  and  _185
REMARK   84  A    between atoms: _187  and  _189
REMARK   85  A    between atoms: _189  and  _190
REMARK   86  A    between atoms: _189  and  _192
REMARK   87  A    between atoms: _192  and  _193
REMARK   88  A    between atoms: _198  and  _200
REMARK   89  A    between atoms: _200  and  _201
REMARK   90  A    between atoms: _204  and  _206
REMARK   91  A    between atoms: _206  and  _207
REMARK   92  A    between atoms: _206  and  _209
REMARK   93  A    between atoms: _209  and  _210
REMARK   94  A    between atoms: _213  and  _215
REMARK   95  A    between atoms: _215  and  _216
REMARK   96  A    between atoms: _215  and  _218
REMARK   97  A    between atoms: _221  and  _223
REMARK   98  A    between atoms: _223  and  _224
REMARK   99  A    between atoms: _227  and  _228
REMARK  100  A    between atoms: _233  and  _235
REMARK  101  A    between atoms: _235  and  _236
REMARK  102  A    between atoms: _235  and  _238
REMARK  103  A    between atoms: _238  and  _239
REMARK  104  A    between atoms: _241  and  _243
REMARK  105  A    between atoms: _243  and  _244
REMARK  106  A    between atoms: _243  and  _246
REMARK  107  A    between atoms: _246  and  _247
REMARK  108  A    between atoms: _250  and  _252
REMARK  109  A    between atoms: _252  and  _253
REMARK  110  A    between atoms: _252  and  _255
REMARK  111  A    between atoms: _255  and  _256
REMARK  112  A    between atoms: _256  and  _257
REMARK  113  A    between atoms: _257  and  _258
REMARK  114  A    between atoms: _267  and  _269
REMARK  115  A    between atoms: _269  and  _270
REMARK  116  A    between atoms: _269  and  _272
REMARK  117  A    between atoms: _272  and  _273
REMARK  118  A    between atoms: _276  and  _277
REMARK  119  A    between atoms: _282  and  _284
REMARK  120  A    between atoms: _284  and  _285
REMARK  121  A    between atoms: _287  and  _289
REMARK  122  A    between atoms: _289  and  _290
REMARK  123  A    between atoms: _289  and  _292
REMARK  124  A    between atoms: _295  and  _297
REMARK  125  A    between atoms: _297  and  _298
REMARK  126  A    between atoms: _300  and  _302
REMARK  127  A    between atoms: _302  and  _303
REMARK  128  A    between atoms: _306  and  _308
REMARK  129  A    between atoms: _308  and  _309
REMARK  130  A    between atoms: _308  and  _311
REMARK  131  A    between atoms: _311  and  _312
REMARK  132  A    between atoms: _312  and  _313
REMARK  133  A    between atoms: _318  and  _320
REMARK  134  A    between atoms: _320  and  _321
REMARK  135  A    between atoms: _323  and  _325
REMARK  136  A    between atoms: _325  and  _326
REMARK  137  A    between atoms: _328  and  _330
REMARK  138  A    between atoms: _330  and  _331
REMARK  139  A    between atoms: _330  and  _333
REMARK  140  A    between atoms: _333  and  _334
REMARK  141  A    between atoms: _337  and  _339
REMARK  142  A    between atoms: _339  and  _340
REMARK  143  A    between atoms: _339  and  _342
REMARK  144  A    between atoms: _345  and  _347
REMARK  145  A    between atoms: _347  and  _348
REMARK  146  A    between atoms: _350  and  _352
REMARK  147  A    between atoms: _352  and  _353
REMARK  148  A    between atoms: _352  and  _355
REMARK  149  A    between atoms: _355  and  _356
REMARK  150  A    between atoms: _356  and  _357
REMARK  151  A    between atoms: _357  and  _358
REMARK  152  A    between atoms: _367  and  _369
REMARK  153  A    between atoms: _369  and  _370
REMARK  154  A    between atoms: _369  and  _372
REMARK  155  A    between atoms: _372  and  _373
REMARK  156  A    between atoms: _375  and  _377
REMARK  157  A    between atoms: _377  and  _378
REMARK  158  A    between atoms: _377  and  _380
REMARK  159  A    between atoms: _380  and  _381
REMARK  160  A    between atoms: _384  and  _386
REMARK  161  A    between atoms: _386  and  _387
REMARK  162  A    between atoms: _386  and  _389
REMARK  163  A    between atoms: _389  and  _390
REMARK  164  A    between atoms: _395  and  _396
REMARK  165  A    between atoms: _398  and  _400
REMARK  166  A    between atoms: _400  and  _401
REMARK  167  A    between atoms: _400  and  _403
REMARK  168  A    between atoms: _403  and  _404
REMARK  169  A    between atoms: _407  and  _409
REMARK  170  A    between atoms: _409  and  _410
REMARK  171  A    between atoms: _413  and  _415
REMARK  172  A    between atoms: _415  and  _416
REMARK  173  A    between atoms: _415  and  _418
REMARK  174  A    between atoms: _418  and  _419
REMARK  175  A    between atoms: _422  and  _424
REMARK  176  A    between atoms: _424  and  _425
REMARK  177  A    between atoms: _424  and  _427
REMARK  178  A    between atoms: _427  and  _428
REMARK  179  A    between atoms: _432  and  _433
REMARK  180  A    between atoms: _438  and  _440
REMARK  181  A    between atoms: _440  and  _441
REMARK  182  A    between atoms: _440  and  _443
REMARK  183  A    between atoms: _443  and  _444
REMARK  184  A    between atoms: _444  and  _445
REMARK  185  A    between atoms: _448  and  _450
REMARK  186  A    between atoms: _450  and  _451
REMARK  187  A    between atoms: _450  and  _453
REMARK  188  A    between atoms: _453  and  _454
REMARK  189  A    between atoms: _457  and  _459
REMARK  190  A    between atoms: _459  and  _460
REMARK  191  A    between atoms: _459  and  _462
REMARK  192  A    between atoms: _462  and  _463
REMARK  193  A    between atoms: _468  and  _470
REMARK  194  A    between atoms: _470  and  _471
REMARK  195  A    between atoms: _470  and  _473
REMARK  196  A    between atoms: _473  and  _474
REMARK  197  A    between atoms: _474  and  _475
REMARK  198  A    between atoms: _475  and  _476
REMARK  199  A    between atoms: _476  and  _477
REMARK  200  A    between atoms: _481  and  _483
REMARK  201  A    between atoms: _483  and  _484
REMARK  202  A    between atoms: _483  and  _486
REMARK  203  A    between atoms: _486  and  _487
REMARK                            x       y       z     vdW  Elec       q    Type
REMARK                         _______ _______ _______ _____ _____    ______ ____
ROOT
ATOM      1  O   HOH     1      22.197  45.110  36.680  0.00  0.00    +0.000 OA
ENDROOT
TORSDOF 0
REMARK  Name = ../refined-set-2016/3w07/3w07_pocket.pdb
REMARK  203 active torsions:
REMARK  status: ('A' for Active; 'I' for Inactive)
REMARK    1  A    between atoms: _1  and  _3
REMARK    2  A    between atoms: _3  and  _4
REMARK    3  A    between atoms: _3  and  _6
REMARK    4  A    between atoms: _6  and  _7
REMARK    5  A    between atoms: _10  and  _12
REMARK    6  A    between atoms: _12  and  _13
REMARK    7  A    between atoms: _12  and  _15
REMARK    8  A    between atoms: _15  and  _16
REMARK    9  A    between atoms: _19  and  _21
REMARK   10  A    between atoms: _21  and  _22
REMARK   11  A    between atoms: _25  and  _27
REMARK   12  A    between atoms: _27  and  _28
REMARK   13  A    between atoms: _27  and  _30
REMARK   14  A    between atoms: _30  and  _31
REMARK   15  A    between atoms: _31  and  _32
REMARK   16  A    between atoms: _34  and  _36
REMARK   17  A    between atoms: _36  and  _37
REMARK   18  A    between atoms: _36  and  _39
REMARK   19  A    between atoms: _39  and  _40
REMARK   20  A    between atoms: _43  and  _45
REMARK   21  A    between atoms: _45  and  _46
REMARK   22  A    between atoms: _45  and  _48
REMARK   23  A    between atoms: _48  and  _49
REMARK   24  A    between atoms: _49  and  _50
REMARK   25  A    between atoms: _50  and  _51
REMARK   26  A    between atoms: _51  and  _52
REMARK   27  A    between atoms: _56  and  _58
REMARK   28  A    between atoms: _58  and  _59
REMARK   29  A    between atoms: _58  and  _61
REMARK   30  A    between atoms: _61  and  _62
REMARK   31  A    between atoms: _65  and  _67
REMARK   32  A    between atoms: _67  and  _68
REMARK   33  A    between atoms: _70  and  _72
REMARK   34  A    between atoms: _72  and  _73
REMARK   35  A    between atoms: _72  and  _75
REMARK   36  A    between atoms: _75  and  _76
REMARK   37  A    between atoms: _81  and  _82
REMARK   38  A    between atoms: _85  and  _86
REMARK   39  A    between atoms: _91  and  _93
REMARK   40  A    between atoms: _93  and  _94
REMARK   41  A    between atoms: _93  and  _96
REMARK   42  A    between atoms: _96  and  _97
REMARK   43  A    between atoms: _100  and  _102
REMARK   44  A    between atoms: _102  and  _103
REMARK   45  A    between atoms: _102  and  _105
REMARK   46  A    between atoms: _105  and  _106
REMARK   47  A    between atoms: _109  and  _111
REMARK   48  A    between atoms: _111  and  _112
REMARK   49  A    between atoms: _111  and  _114
REMARK   50  A    between atoms: _114  and  _115
REMARK   51  A    between atoms: _115  and  _116
REMARK   52  A    between atoms: _116  and  _117
REMARK   53  A    between atoms: _117  and  _118
REMARK   54  A    between atoms: _122  and  _124
REMARK   55  A    between atoms: _124  and  _125
REMARK   56  A    between atoms: _124  and  _127
REMARK   57  A    between atoms: _127  and  _128
REMARK   58  A    between atoms: _131  and  _133
REMARK   59  A    between atoms: _133  and  _134
REMARK   60  A    between atoms: _133  and  _136
REMARK   61  A    between atoms: _136  and  _137
REMARK   62  A    between atoms: _142  and  _144
REMARK   63  A    between atoms: _144  and  _145
REMARK   64  A    between atoms: _144  and  _147
REMARK   65  A    between atoms: _147  and  _148
REMARK   66  A    between atoms: _151  and  _153
REMARK   67  A    between atoms: _153  and  _154
REMARK   68  A    between atoms: _153  and  _156
REMARK   69  A    between atoms: _156  and  _157
REMARK   70  A    between atoms: _160  and  _162
REMARK   71  A    between atoms: _162  and  _163
REMARK   72  A    between atoms: _162  and  _165
REMARK   73  A    between atoms: _165  and  _166
REMARK   74  A    between atoms: _166  and  _167
REMARK   75  A    between atoms: _170  and  _172
REMARK   76  A    between atoms: _172  and  _173
REMARK   77  A    between atoms: _172  and  _175
REMARK   78  A    between atoms: _175  and  _176
REMARK   79  A    between atoms: _176  and  _177
REMARK   80  A    between atoms: _179  and  _181
REMARK   81  A    between atoms: _181  and  _182
REMARK   82  A    between atoms: _181  and  _184
REMARK   83  A    between atoms: _184  and  _185
REMARK   84  A    between atoms: _187  and  _189
REMARK   85  A    between atoms: _189  and  _190
REMARK   86  A    between atoms: _189  and  _192
REMARK   87  A    between atoms: _192  and  _193
REMARK   88  A    between atoms: _198  and  _200
REMARK   89  A    between atoms: _200  and  _201
REMARK   90  A    between atoms: _204  and  _206
REMARK   91  A    between atoms: _206  and  _207
REMARK   92  A    between atoms: _206  and  _209
REMARK   93  A    between atoms: _209  and  _210
REMARK   94  A    between atoms: _213  and  _215
REMARK   95  A    between atoms: _215  and  _216
REMARK   96  A    between atoms: _215  and  _218
REMARK   97  A    between atoms: _221  and  _223
REMARK   98  A    between atoms: _223  and  _224
REMARK   99  A    between atoms: _227  and  _228
REMARK  100  A    between atoms: _233  and  _235
REMARK  101  A    between atoms: _235  and  _236
REMARK  102  A    between atoms: _235  and  _238
REMARK  103  A    between atoms: _238  and  _239
REMARK  104  A    between atoms: _241  and  _243
REMARK  105  A    between atoms: _243  and  _244
REMARK  106  A    between atoms: _243  and  _246
REMARK  107  A    between atoms: _246  and  _247
REMARK  108  A    between atoms: _250  and  _252
REMARK  109  A    between atoms: _252  and  _253
REMARK  110  A    between atoms: _252  and  _255
REMARK  111  A    between atoms: _255  and  _256
REMARK  112  A    between atoms: _256  and  _257
REMARK  113  A    between atoms: _257  and  _258
REMARK  114  A    between atoms: _267  and  _269
REMARK  115  A    between atoms: _269  and  _270
REMARK  116  A    between atoms: _269  and  _272
REMARK  117  A    between atoms: _272  and  _273
REMARK  118  A    between atoms: _276  and  _277
REMARK  119  A    between atoms: _282  and  _284
REMARK  120  A    between atoms: _284  and  _285
REMARK  121  A    between atoms: _287  and  _289
REMARK  122  A    between atoms: _289  and  _290
REMARK  123  A    between atoms: _289  and  _292
REMARK  124  A    between atoms: _295  and  _297
REMARK  125  A    between atoms: _297  and  _298
REMARK  126  A    between atoms: _300  and  _302
REMARK  127  A    between atoms: _302  and  _303
REMARK  128  A    between atoms: _306  and  _308
REMARK  129  A    between atoms: _308  and  _309
REMARK  130  A    between atoms: _308  and  _311
REMARK  131  A    between atoms: _311  and  _312
REMARK  132  A    between atoms: _312  and  _313
REMARK  133  A    between atoms: _318  and  _320
REMARK  134  A    between atoms: _320  and  _321
REMARK  135  A    between atoms: _323  and  _325
REMARK  136  A    between atoms: _325  and  _326
REMARK  137  A    between atoms: _328  and  _330
REMARK  138  A    between atoms: _330  and  _331
REMARK  139  A    between atoms: _330  and  _333
REMARK  140  A    between atoms: _333  and  _334
REMARK  141  A    between atoms: _337  and  _339
REMARK  142  A    between atoms: _339  and  _340
REMARK  143  A    between atoms: _339  and  _342
REMARK  144  A    between atoms: _345  and  _347
REMARK  145  A    between atoms: _347  and  _348
REMARK  146  A    between atoms: _350  and  _352
REMARK  147  A    between atoms: _352  and  _353
REMARK  148  A    between atoms: _352  and  _355
REMARK  149  A    between atoms: _355  and  _356
REMARK  150  A    between atoms: _356  and  _357
REMARK  151  A    between atoms: _357  and  _358
REMARK  152  A    between atoms: _367  and  _369
REMARK  153  A    between atoms: _369  and  _370
REMARK  154  A    between atoms: _369  and  _372
REMARK  155  A    between atoms: _372  and  _373
REMARK  156  A    between atoms: _375  and  _377
REMARK  157  A    between atoms: _377  and  _378
REMARK  158  A    between atoms: _377  and  _380
REMARK  159  A    between atoms: _380  and  _381
REMARK  160  A    between atoms: _384  and  _386
REMARK  161  A    between atoms: _386  and  _387
REMARK  162  A    between atoms: _386  and  _389
REMARK  163  A    between atoms: _389  and  _390
REMARK  164  A    between atoms: _395  and  _396
REMARK  165  A    between atoms: _398  and  _400
REMARK  166  A    between atoms: _400  and  _401
REMARK  167  A    between atoms: _400  and  _403
REMARK  168  A    between atoms: _403  and  _404
REMARK  169  A    between atoms: _407  and  _409
REMARK  170  A    between atoms: _409  and  _410
REMARK  171  A    between atoms: _413  and  _415
REMARK  172  A    between atoms: _415  and  _416
REMARK  173  A    between atoms: _415  and  _418
REMARK  174  A    between atoms: _418  and  _419
REMARK  175  A    between atoms: _422  and  _424
REMARK  176  A    between atoms: _424  and  _425
REMARK  177  A    between atoms: _424  and  _427
REMARK  178  A    between atoms: _427  and  _428
REMARK  179  A    between atoms: _432  and  _433
REMARK  180  A    between atoms: _438  and  _440
REMARK  181  A    between atoms: _440  and  _441
REMARK  182  A    between atoms: _440  and  _443
REMARK  183  A    between atoms: _443  and  _444
REMARK  184  A    between atoms: _444  and  _445
REMARK  185  A    between atoms: _448  and  _450
REMARK  186  A    between atoms: _450  and  _451
REMARK  187  A    between atoms: _450  and  _453
REMARK  188  A    between atoms: _453  and  _454
REMARK  189  A    between atoms: _457  and  _459
REMARK  190  A    between atoms: _459  and  _460
REMARK  191  A    between atoms: _459  and  _462
REMARK  192  A    between atoms: _462  and  _463
REMARK  193  A    between atoms: _468  and  _470
REMARK  194  A    between atoms: _470  and  _471
REMARK  195  A    between atoms: _470  and  _473
REMARK  196  A    between atoms: _473  and  _474
REMARK  197  A    between atoms: _474  and  _475
REMARK  198  A    between atoms: _475  and  _476
REMARK  199  A    between atoms: _476  and  _477
REMARK  200  A    between atoms: _481  and  _483
REMARK  201  A    between atoms: _483  and  _484
REMARK  202  A    between atoms: _483  and  _486
REMARK  203  A    between atoms: _486  and  _487
REMARK                            x       y       z     vdW  Elec       q    Type
REMARK                         _______ _______ _______ _____ _____    ______ ____
ROOT
ATOM      1  O   HOH     1      16.343  42.885  32.485  0.00  0.00    +0.000 OA
ENDROOT
TORSDOF 0
REMARK  Name = ../refined-set-2016/3w07/3w07_pocket.pdb
REMARK  203 active torsions:
REMARK  status: ('A' for Active; 'I' for Inactive)
REMARK    1  A    between atoms: _1  and  _3
REMARK    2  A    between atoms: _3  and  _4
REMARK    3  A    between atoms: _3  and  _6
REMARK    4  A    between atoms: _6  and  _7
REMARK    5  A    between atoms: _10  and  _12
REMARK    6  A    between atoms: _12  and  _13
REMARK    7  A    between atoms: _12  and  _15
REMARK    8  A    between atoms: _15  and  _16
REMARK    9  A    between atoms: _19  and  _21
REMARK   10  A    between atoms: _21  and  _22
REMARK   11  A    between atoms: _25  and  _27
REMARK   12  A    between atoms: _27  and  _28
REMARK   13  A    between atoms: _27  and  _30
REMARK   14  A    between atoms: _30  and  _31
REMARK   15  A    between atoms: _31  and  _32
REMARK   16  A    between atoms: _34  and  _36
REMARK   17  A    between atoms: _36  and  _37
REMARK   18  A    between atoms: _36  and  _39
REMARK   19  A    between atoms: _39  and  _40
REMARK   20  A    between atoms: _43  and  _45
REMARK   21  A    between atoms: _45  and  _46
REMARK   22  A    between atoms: _45  and  _48
REMARK   23  A    between atoms: _48  and  _49
REMARK   24  A    between atoms: _49  and  _50
REMARK   25  A    between atoms: _50  and  _51
REMARK   26  A    between atoms: _51  and  _52
REMARK   27  A    between atoms: _56  and  _58
REMARK   28  A    between atoms: _58  and  _59
REMARK   29  A    between atoms: _58  and  _61
REMARK   30  A    between atoms: _61  and  _62
REMARK   31  A    between atoms: _65  and  _67
REMARK   32  A    between atoms: _67  and  _68
REMARK   33  A    between atoms: _70  and  _72
REMARK   34  A    between atoms: _72  and  _73
REMARK   35  A    between atoms: _72  and  _75
REMARK   36  A    between atoms: _75  and  _76
REMARK   37  A    between atoms: _81  and  _82
REMARK   38  A    between atoms: _85  and  _86
REMARK   39  A    between atoms: _91  and  _93
REMARK   40  A    between atoms: _93  and  _94
REMARK   41  A    between atoms: _93  and  _96
REMARK   42  A    between atoms: _96  and  _97
REMARK   43  A    between atoms: _100  and  _102
REMARK   44  A    between atoms: _102  and  _103
REMARK   45  A    between atoms: _102  and  _105
REMARK   46  A    between atoms: _105  and  _106
REMARK   47  A    between atoms: _109  and  _111
REMARK   48  A    between atoms: _111  and  _112
REMARK   49  A    between atoms: _111  and  _114
REMARK   50  A    between atoms: _114  and  _115
REMARK   51  A    between atoms: _115  and  _116
REMARK   52  A    between atoms: _116  and  _117
REMARK   53  A    between atoms: _117  and  _118
REMARK   54  A    between atoms: _122  and  _124
REMARK   55  A    between atoms: _124  and  _125
REMARK   56  A    between atoms: _124  and  _127
REMARK   57  A    between atoms: _127  and  _128
REMARK   58  A    between atoms: _131  and  _133
REMARK   59  A    between atoms: _133  and  _134
REMARK   60  A    between atoms: _133  and  _136
REMARK   61  A    between atoms: _136  and  _137
REMARK   62  A    between atoms: _142  and  _144
REMARK   63  A    between atoms: _144  and  _145
REMARK   64  A    between atoms: _144  and  _147
REMARK   65  A    between atoms: _147  and  _148
REMARK   66  A    between atoms: _151  and  _153
REMARK   67  A    between atoms: _153  and  _154
REMARK   68  A    between atoms: _153  and  _156
REMARK   69  A    between atoms: _156  and  _157
REMARK   70  A    between atoms: _160  and  _162
REMARK   71  A    between atoms: _162  and  _163
REMARK   72  A    between atoms: _162  and  _165
REMARK   73  A    between atoms: _165  and  _166
REMARK   74  A    between atoms: _166  and  _167
REMARK   75  A    between atoms: _170  and  _172
REMARK   76  A    between atoms: _172  and  _173
REMARK   77  A    between atoms: _172  and  _175
REMARK   78  A    between atoms: _175  and  _176
REMARK   79  A    between atoms: _176  and  _177
REMARK   80  A    between atoms: _179  and  _181
REMARK   81  A    between atoms: _181  and  _182
REMARK   82  A    between atoms: _181  and  _184
REMARK   83  A    between atoms: _184  and  _185
REMARK   84  A    between atoms: _187  and  _189
REMARK   85  A    between atoms: _189  and  _190
REMARK   86  A    between atoms: _189  and  _192
REMARK   87  A    between atoms: _192  and  _193
REMARK   88  A    between atoms: _198  and  _200
REMARK   89  A    between atoms: _200  and  _201
REMARK   90  A    between atoms: _204  and  _206
REMARK   91  A    between atoms: _206  and  _207
REMARK   92  A    between atoms: _206  and  _209
REMARK   93  A    between atoms: _209  and  _210
REMARK   94  A    between atoms: _213  and  _215
REMARK   95  A    between atoms: _215  and  _216
REMARK   96  A    between atoms: _215  and  _218
REMARK   97  A    between atoms: _221  and  _223
REMARK   98  A    between atoms: _223  and  _224
REMARK   99  A    between atoms: _227  and  _228
REMARK  100  A    between atoms: _233  and  _235
REMARK  101  A    between atoms: _235  and  _236
REMARK  102  A    between atoms: _235  and  _238
REMARK  103  A    between atoms: _238  and  _239
REMARK  104  A    between atoms: _241  and  _243
REMARK  105  A    between atoms: _243  and  _244
REMARK  106  A    between atoms: _243  and  _246
REMARK  107  A    between atoms: _246  and  _247
REMARK  108  A    between atoms: _250  and  _252
REMARK  109  A    between atoms: _252  and  _253
REMARK  110  A    between atoms: _252  and  _255
REMARK  111  A    between atoms: _255  and  _256
REMARK  112  A    between atoms: _256  and  _257
REMARK  113  A    between atoms: _257  and  _258
REMARK  114  A    between atoms: _267  and  _269
REMARK  115  A    between atoms: _269  and  _270
REMARK  116  A    between atoms: _269  and  _272
REMARK  117  A    between atoms: _272  and  _273
REMARK  118  A    between atoms: _276  and  _277
REMARK  119  A    between atoms: _282  and  _284
REMARK  120  A    between atoms: _284  and  _285
REMARK  121  A    between atoms: _287  and  _289
REMARK  122  A    between atoms: _289  and  _290
REMARK  123  A    between atoms: _289  and  _292
REMARK  124  A    between atoms: _295  and  _297
REMARK  125  A    between atoms: _297  and  _298
REMARK  126  A    between atoms: _300  and  _302
REMARK  127  A    between atoms: _302  and  _303
REMARK  128  A    between atoms: _306  and  _308
REMARK  129  A    between atoms: _308  and  _309
REMARK  130  A    between atoms: _308  and  _311
REMARK  131  A    between atoms: _311  and  _312
REMARK  132  A    between atoms: _312  and  _313
REMARK  133  A    between atoms: _318  and  _320
REMARK  134  A    between atoms: _320  and  _321
REMARK  135  A    between atoms: _323  and  _325
REMARK  136  A    between atoms: _325  and  _326
REMARK  137  A    between atoms: _328  and  _330
REMARK  138  A    between atoms: _330  and  _331
REMARK  139  A    between atoms: _330  and  _333
REMARK  140  A    between atoms: _333  and  _334
REMARK  141  A    between atoms: _337  and  _339
REMARK  142  A    between atoms: _339  and  _340
REMARK  143  A    between atoms: _339  and  _342
REMARK  144  A    between atoms: _345  and  _347
REMARK  145  A    between atoms: _347  and  _348
REMARK  146  A    between atoms: _350  and  _352
REMARK  147  A    between atoms: _352  and  _353
REMARK  148  A    between atoms: _352  and  _355
REMARK  149  A    between atoms: _355  and  _356
REMARK  150  A    between atoms: _356  and  _357
REMARK  151  A    between atoms: _357  and  _358
REMARK  152  A    between atoms: _367  and  _369
REMARK  153  A    between atoms: _369  and  _370
REMARK  154  A    between atoms: _369  and  _372
REMARK  155  A    between atoms: _372  and  _373
REMARK  156  A    between atoms: _375  and  _377
REMARK  157  A    between atoms: _377  and  _378
REMARK  158  A    between atoms: _377  and  _380
REMARK  159  A    between atoms: _380  and  _381
REMARK  160  A    between atoms: _384  and  _386
REMARK  161  A    between atoms: _386  and  _387
REMARK  162  A    between atoms: _386  and  _389
REMARK  163  A    between atoms: _389  and  _390
REMARK  164  A    between atoms: _395  and  _396
REMARK  165  A    between atoms: _398  and  _400
REMARK  166  A    between atoms: _400  and  _401
REMARK  167  A    between atoms: _400  and  _403
REMARK  168  A    between atoms: _403  and  _404
REMARK  169  A    between atoms: _407  and  _409
REMARK  170  A    between atoms: _409  and  _410
REMARK  171  A    between atoms: _413  and  _415
REMARK  172  A    between atoms: _415  and  _416
REMARK  173  A    between atoms: _415  and  _418
REMARK  174  A    between atoms: _418  and  _419
REMARK  175  A    between atoms: _422  and  _424
REMARK  176  A    between atoms: _424  and  _425
REMARK  177  A    between atoms: _424  and  _427
REMARK  178  A    between atoms: _427  and  _428
REMARK  179  A    between atoms: _432  and  _433
REMARK  180  A    between atoms: _438  and  _440
REMARK  181  A    between atoms: _440  and  _441
REMARK  182  A    between atoms: _440  and  _443
REMARK  183  A    between atoms: _443  and  _444
REMARK  184  A    between atoms: _444  and  _445
REMARK  185  A    between atoms: _448  and  _450
REMARK  186  A    between atoms: _450  and  _451
REMARK  187  A    between atoms: _450  and  _453
REMARK  188  A    between atoms: _453  and  _454
REMARK  189  A    between atoms: _457  and  _459
REMARK  190  A    between atoms: _459  and  _460
REMARK  191  A    between atoms: _459  and  _462
REMARK  192  A    between atoms: _462  and  _463
REMARK  193  A    between atoms: _468  and  _470
REMARK  194  A    between atoms: _470  and  _471
REMARK  195  A    between atoms: _470  and  _473
REMARK  196  A    between atoms: _473  and  _474
REMARK  197  A    between atoms: _474  and  _475
REMARK  198  A    between atoms: _475  and  _476
REMARK  199  A    between atoms: _476  and  _477
REMARK  200  A    between atoms: _481  and  _483
REMARK  201  A    between atoms: _483  and  _484
REMARK  202  A    between atoms: _483  and  _486
REMARK  203  A    between atoms: _486  and  _487
REMARK                            x       y       z     vdW  Elec       q    Type
REMARK                         _______ _______ _______ _____ _____    ______ ____
ROOT
ATOM      1  O   HOH     1      11.990  36.520  41.931  0.00  0.00    +0.000 OA
ENDROOT
TORSDOF 0
REMARK  Name = ../refined-set-2016/3w07/3w07_pocket.pdb
REMARK  203 active torsions:
REMARK  status: ('A' for Active; 'I' for Inactive)
REMARK    1  A    between atoms: _1  and  _3
REMARK    2  A    between atoms: _3  and  _4
REMARK    3  A    between atoms: _3  and  _6
REMARK    4  A    between atoms: _6  and  _7
REMARK    5  A    between atoms: _10  and  _12
REMARK    6  A    between atoms: _12  and  _13
REMARK    7  A    between atoms: _12  and  _15
REMARK    8  A    between atoms: _15  and  _16
REMARK    9  A    between atoms: _19  and  _21
REMARK   10  A    between atoms: _21  and  _22
REMARK   11  A    between atoms: _25  and  _27
REMARK   12  A    between atoms: _27  and  _28
REMARK   13  A    between atoms: _27  and  _30
REMARK   14  A    between atoms: _30  and  _31
REMARK   15  A    between atoms: _31  and  _32
REMARK   16  A    between atoms: _34  and  _36
REMARK   17  A    between atoms: _36  and  _37
REMARK   18  A    between atoms: _36  and  _39
REMARK   19  A    between atoms: _39  and  _40
REMARK   20  A    between atoms: _43  and  _45
REMARK   21  A    between atoms: _45  and  _46
REMARK   22  A    between atoms: _45  and  _48
REMARK   23  A    between atoms: _48  and  _49
REMARK   24  A    between atoms: _49  and  _50
REMARK   25  A    between atoms: _50  and  _51
REMARK   26  A    between atoms: _51  and  _52
REMARK   27  A    between atoms: _56  and  _58
REMARK   28  A    between atoms: _58  and  _59
REMARK   29  A    between atoms: _58  and  _61
REMARK   30  A    between atoms: _61  and  _62
REMARK   31  A    between atoms: _65  and  _67
REMARK   32  A    between atoms: _67  and  _68
REMARK   33  A    between atoms: _70  and  _72
REMARK   34  A    between atoms: _72  and  _73
REMARK   35  A    between atoms: _72  and  _75
REMARK   36  A    between atoms: _75  and  _76
REMARK   37  A    between atoms: _81  and  _82
REMARK   38  A    between atoms: _85  and  _86
REMARK   39  A    between atoms: _91  and  _93
REMARK   40  A    between atoms: _93  and  _94
REMARK   41  A    between atoms: _93  and  _96
REMARK   42  A    between atoms: _96  and  _97
REMARK   43  A    between atoms: _100  and  _102
REMARK   44  A    between atoms: _102  and  _103
REMARK   45  A    between atoms: _102  and  _105
REMARK   46  A    between atoms: _105  and  _106
REMARK   47  A    between atoms: _109  and  _111
REMARK   48  A    between atoms: _111  and  _112
REMARK   49  A    between atoms: _111  and  _114
REMARK   50  A    between atoms: _114  and  _115
REMARK   51  A    between atoms: _115  and  _116
REMARK   52  A    between atoms: _116  and  _117
REMARK   53  A    between atoms: _117  and  _118
REMARK   54  A    between atoms: _122  and  _124
REMARK   55  A    between atoms: _124  and  _125
REMARK   56  A    between atoms: _124  and  _127
REMARK   57  A    between atoms: _127  and  _128
REMARK   58  A    between atoms: _131  and  _133
REMARK   59  A    between atoms: _133  and  _134
REMARK   60  A    between atoms: _133  and  _136
REMARK   61  A    between atoms: _136  and  _137
REMARK   62  A    between atoms: _142  and  _144
REMARK   63  A    between atoms: _144  and  _145
REMARK   64  A    between atoms: _144  and  _147
REMARK   65  A    between atoms: _147  and  _148
REMARK   66  A    between atoms: _151  and  _153
REMARK   67  A    between atoms: _153  and  _154
REMARK   68  A    between atoms: _153  and  _156
REMARK   69  A    between atoms: _156  and  _157
REMARK   70  A    between atoms: _160  and  _162
REMARK   71  A    between atoms: _162  and  _163
REMARK   72  A    between atoms: _162  and  _165
REMARK   73  A    between atoms: _165  and  _166
REMARK   74  A    between atoms: _166  and  _167
REMARK   75  A    between atoms: _170  and  _172
REMARK   76  A    between atoms: _172  and  _173
REMARK   77  A    between atoms: _172  and  _175
REMARK   78  A    between atoms: _175  and  _176
REMARK   79  A    between atoms: _176  and  _177
REMARK   80  A    between atoms: _179  and  _181
REMARK   81  A    between atoms: _181  and  _182
REMARK   82  A    between atoms: _181  and  _184
REMARK   83  A    between atoms: _184  and  _185
REMARK   84  A    between atoms: _187  and  _189
REMARK   85  A    between atoms: _189  and  _190
REMARK   86  A    between atoms: _189  and  _192
REMARK   87  A    between atoms: _192  and  _193
REMARK   88  A    between atoms: _198  and  _200
REMARK   89  A    between atoms: _200  and  _201
REMARK   90  A    between atoms: _204  and  _206
REMARK   91  A    between atoms: _206  and  _207
REMARK   92  A    between atoms: _206  and  _209
REMARK   93  A    between atoms: _209  and  _210
REMARK   94  A    between atoms: _213  and  _215
REMARK   95  A    between atoms: _215  and  _216
REMARK   96  A    between atoms: _215  and  _218
REMARK   97  A    between atoms: _221  and  _223
REMARK   98  A    between atoms: _223  and  _224
REMARK   99  A    between atoms: _227  and  _228
REMARK  100  A    between atoms: _233  and  _235
REMARK  101  A    between atoms: _235  and  _236
REMARK  102  A    between atoms: _235  and  _238
REMARK  103  A    between atoms: _238  and  _239
REMARK  104  A    between atoms: _241  and  _243
REMARK  105  A    between atoms: _243  and  _244
REMARK  106  A    between atoms: _243  and  _246
REMARK  107  A    between atoms: _246  and  _247
REMARK  108  A    between atoms: _250  and  _252
REMARK  109  A    between atoms: _252  and  _253
REMARK  110  A    between atoms: _252  and  _255
REMARK  111  A    between atoms: _255  and  _256
REMARK  112  A    between atoms: _256  and  _257
REMARK  113  A    between atoms: _257  and  _258
REMARK  114  A    between atoms: _267  and  _269
REMARK  115  A    between atoms: _269  and  _270
REMARK  116  A    between atoms: _269  and  _272
REMARK  117  A    between atoms: _272  and  _273
REMARK  118  A    between atoms: _276  and  _277
REMARK  119  A    between atoms: _282  and  _284
REMARK  120  A    between atoms: _284  and  _285
REMARK  121  A    between atoms: _287  and  _289
REMARK  122  A    between atoms: _289  and  _290
REMARK  123  A    between atoms: _289  and  _292
REMARK  124  A    between atoms: _295  and  _297
REMARK  125  A    between atoms: _297  and  _298
REMARK  126  A    between atoms: _300  and  _302
REMARK  127  A    between atoms: _302  and  _303
REMARK  128  A    between atoms: _306  and  _308
REMARK  129  A    between atoms: _308  and  _309
REMARK  130  A    between atoms: _308  and  _311
REMARK  131  A    between atoms: _311  and  _312
REMARK  132  A    between atoms: _312  and  _313
REMARK  133  A    between atoms: _318  and  _320
REMARK  134  A    between atoms: _320  and  _321
REMARK  135  A    between atoms: _323  and  _325
REMARK  136  A    between atoms: _325  and  _326
REMARK  137  A    between atoms: _328  and  _330
REMARK  138  A    between atoms: _330  and  _331
REMARK  139  A    between atoms: _330  and  _333
REMARK  140  A    between atoms: _333  and  _334
REMARK  141  A    between atoms: _337  and  _339
REMARK  142  A    between atoms: _339  and  _340
REMARK  143  A    between atoms: _339  and  _342
REMARK  144  A    between atoms: _345  and  _347
REMARK  145  A    between atoms: _347  and  _348
REMARK  146  A    between atoms: _350  and  _352
REMARK  147  A    between atoms: _352  and  _353
REMARK  148  A    between atoms: _352  and  _355
REMARK  149  A    between atoms: _355  and  _356
REMARK  150  A    between atoms: _356  and  _357
REMARK  151  A    between atoms: _357  and  _358
REMARK  152  A    between atoms: _367  and  _369
REMARK  153  A    between atoms: _369  and  _370
REMARK  154  A    between atoms: _369  and  _372
REMARK  155  A    between atoms: _372  and  _373
REMARK  156  A    between atoms: _375  and  _377
REMARK  157  A    between atoms: _377  and  _378
REMARK  158  A    between atoms: _377  and  _380
REMARK  159  A    between atoms: _380  and  _381
REMARK  160  A    between atoms: _384  and  _386
REMARK  161  A    between atoms: _386  and  _387
REMARK  162  A    between atoms: _386  and  _389
REMARK  163  A    between atoms: _389  and  _390
REMARK  164  A    between atoms: _395  and  _396
REMARK  165  A    between atoms: _398  and  _400
REMARK  166  A    between atoms: _400  and  _401
REMARK  167  A    between atoms: _400  and  _403
REMARK  168  A    between atoms: _403  and  _404
REMARK  169  A    between atoms: _407  and  _409
REMARK  170  A    between atoms: _409  and  _410
REMARK  171  A    between atoms: _413  and  _415
REMARK  172  A    between atoms: _415  and  _416
REMARK  173  A    between atoms: _415  and  _418
REMARK  174  A    between atoms: _418  and  _419
REMARK  175  A    between atoms: _422  and  _424
REMARK  176  A    between atoms: _424  and  _425
REMARK  177  A    between atoms: _424  and  _427
REMARK  178  A    between atoms: _427  and  _428
REMARK  179  A    between atoms: _432  and  _433
REMARK  180  A    between atoms: _438  and  _440
REMARK  181  A    between atoms: _440  and  _441
REMARK  182  A    between atoms: _440  and  _443
REMARK  183  A    between atoms: _443  and  _444
REMARK  184  A    between atoms: _444  and  _445
REMARK  185  A    between atoms: _448  and  _450
REMARK  186  A    between atoms: _450  and  _451
REMARK  187  A    between atoms: _450  and  _453
REMARK  188  A    between atoms: _453  and  _454
REMARK  189  A    between atoms: _457  and  _459
REMARK  190  A    between atoms: _459  and  _460
REMARK  191  A    between atoms: _459  and  _462
REMARK  192  A    between atoms: _462  and  _463
REMARK  193  A    between atoms: _468  and  _470
REMARK  194  A    between atoms: _470  and  _471
REMARK  195  A    between atoms: _470  and  _473
REMARK  196  A    between atoms: _473  and  _474
REMARK  197  A    between atoms: _474  and  _475
REMARK  198  A    between atoms: _475  and  _476
REMARK  199  A    between atoms: _476  and  _477
REMARK  200  A    between atoms: _481  and  _483
REMARK  201  A    between atoms: _483  and  _484
REMARK  202  A    between atoms: _483  and  _486
REMARK  203  A    between atoms: _486  and  _487
REMARK                            x       y       z     vdW  Elec       q    Type
REMARK                         _______ _______ _______ _____ _____    ______ ____
ROOT
ATOM      1  O   HOH     1      20.480  34.014  46.115  0.00  0.00    +0.000 OA
ENDROOT
TORSDOF 0
REMARK  Name = ../refined-set-2016/3w07/3w07_pocket.pdb
REMARK  203 active torsions:
REMARK  status: ('A' for Active; 'I' for Inactive)
REMARK    1  A    between atoms: _1  and  _3
REMARK    2  A    between atoms: _3  and  _4
REMARK    3  A    between atoms: _3  and  _6
REMARK    4  A    between atoms: _6  and  _7
REMARK    5  A    between atoms: _10  and  _12
REMARK    6  A    between atoms: _12  and  _13
REMARK    7  A    between atoms: _12  and  _15
REMARK    8  A    between atoms: _15  and  _16
REMARK    9  A    between atoms: _19  and  _21
REMARK   10  A    between atoms: _21  and  _22
REMARK   11  A    between atoms: _25  and  _27
REMARK   12  A    between atoms: _27  and  _28
REMARK   13  A    between atoms: _27  and  _30
REMARK   14  A    between atoms: _30  and  _31
REMARK   15  A    between atoms: _31  and  _32
REMARK   16  A    between atoms: _34  and  _36
REMARK   17  A    between atoms: _36  and  _37
REMARK   18  A    between atoms: _36  and  _39
REMARK   19  A    between atoms: _39  and  _40
REMARK   20  A    between atoms: _43  and  _45
REMARK   21  A    between atoms: _45  and  _46
REMARK   22  A    between atoms: _45  and  _48
REMARK   23  A    between atoms: _48  and  _49
REMARK   24  A    between atoms: _49  and  _50
REMARK   25  A    between atoms: _50  and  _51
REMARK   26  A    between atoms: _51  and  _52
REMARK   27  A    between atoms: _56  and  _58
REMARK   28  A    between atoms: _58  and  _59
REMARK   29  A    between atoms: _58  and  _61
REMARK   30  A    between atoms: _61  and  _62
REMARK   31  A    between atoms: _65  and  _67
REMARK   32  A    between atoms: _67  and  _68
REMARK   33  A    between atoms: _70  and  _72
REMARK   34  A    between atoms: _72  and  _73
REMARK   35  A    between atoms: _72  and  _75
REMARK   36  A    between atoms: _75  and  _76
REMARK   37  A    between atoms: _81  and  _82
REMARK   38  A    between atoms: _85  and  _86
REMARK   39  A    between atoms: _91  and  _93
REMARK   40  A    between atoms: _93  and  _94
REMARK   41  A    between atoms: _93  and  _96
REMARK   42  A    between atoms: _96  and  _97
REMARK   43  A    between atoms: _100  and  _102
REMARK   44  A    between atoms: _102  and  _103
REMARK   45  A    between atoms: _102  and  _105
REMARK   46  A    between atoms: _105  and  _106
REMARK   47  A    between atoms: _109  and  _111
REMARK   48  A    between atoms: _111  and  _112
REMARK   49  A    between atoms: _111  and  _114
REMARK   50  A    between atoms: _114  and  _115
REMARK   51  A    between atoms: _115  and  _116
REMARK   52  A    between atoms: _116  and  _117
REMARK   53  A    between atoms: _117  and  _118
REMARK   54  A    between atoms: _122  and  _124
REMARK   55  A    between atoms: _124  and  _125
REMARK   56  A    between atoms: _124  and  _127
REMARK   57  A    between atoms: _127  and  _128
REMARK   58  A    between atoms: _131  and  _133
REMARK   59  A    between atoms: _133  and  _134
REMARK   60  A    between atoms: _133  and  _136
REMARK   61  A    between atoms: _136  and  _137
REMARK   62  A    between atoms: _142  and  _144
REMARK   63  A    between atoms: _144  and  _145
REMARK   64  A    between atoms: _144  and  _147
REMARK   65  A    between atoms: _147  and  _148
REMARK   66  A    between atoms: _151  and  _153
REMARK   67  A    between atoms: _153  and  _154
REMARK   68  A    between atoms: _153  and  _156
REMARK   69  A    between atoms: _156  and  _157
REMARK   70  A    between atoms: _160  and  _162
REMARK   71  A    between atoms: _162  and  _163
REMARK   72  A    between atoms: _162  and  _165
REMARK   73  A    between atoms: _165  and  _166
REMARK   74  A    between atoms: _166  and  _167
REMARK   75  A    between atoms: _170  and  _172
REMARK   76  A    between atoms: _172  and  _173
REMARK   77  A    between atoms: _172  and  _175
REMARK   78  A    between atoms: _175  and  _176
REMARK   79  A    between atoms: _176  and  _177
REMARK   80  A    between atoms: _179  and  _181
REMARK   81  A    between atoms: _181  and  _182
REMARK   82  A    between atoms: _181  and  _184
REMARK   83  A    between atoms: _184  and  _185
REMARK   84  A    between atoms: _187  and  _189
REMARK   85  A    between atoms: _189  and  _190
REMARK   86  A    between atoms: _189  and  _192
REMARK   87  A    between atoms: _192  and  _193
REMARK   88  A    between atoms: _198  and  _200
REMARK   89  A    between atoms: _200  and  _201
REMARK   90  A    between atoms: _204  and  _206
REMARK   91  A    between atoms: _206  and  _207
REMARK   92  A    between atoms: _206  and  _209
REMARK   93  A    between atoms: _209  and  _210
REMARK   94  A    between atoms: _213  and  _215
REMARK   95  A    between atoms: _215  and  _216
REMARK   96  A    between atoms: _215  and  _218
REMARK   97  A    between atoms: _221  and  _223
REMARK   98  A    between atoms: _223  and  _224
REMARK   99  A    between atoms: _227  and  _228
REMARK  100  A    between atoms: _233  and  _235
REMARK  101  A    between atoms: _235  and  _236
REMARK  102  A    between atoms: _235  and  _238
REMARK  103  A    between atoms: _238  and  _239
REMARK  104  A    between atoms: _241  and  _243
REMARK  105  A    between atoms: _243  and  _244
REMARK  106  A    between atoms: _243  and  _246
REMARK  107  A    between atoms: _246  and  _247
REMARK  108  A    between atoms: _250  and  _252
REMARK  109  A    between atoms: _252  and  _253
REMARK  110  A    between atoms: _252  and  _255
REMARK  111  A    between atoms: _255  and  _256
REMARK  112  A    between atoms: _256  and  _257
REMARK  113  A    between atoms: _257  and  _258
REMARK  114  A    between atoms: _267  and  _269
REMARK  115  A    between atoms: _269  and  _270
REMARK  116  A    between atoms: _269  and  _272
REMARK  117  A    between atoms: _272  and  _273
REMARK  118  A    between atoms: _276  and  _277
REMARK  119  A    between atoms: _282  and  _284
REMARK  120  A    between atoms: _284  and  _285
REMARK  121  A    between atoms: _287  and  _289
REMARK  122  A    between atoms: _289  and  _290
REMARK  123  A    between atoms: _289  and  _292
REMARK  124  A    between atoms: _295  and  _297
REMARK  125  A    between atoms: _297  and  _298
REMARK  126  A    between atoms: _300  and  _302
REMARK  127  A    between atoms: _302  and  _303
REMARK  128  A    between atoms: _306  and  _308
REMARK  129  A    between atoms: _308  and  _309
REMARK  130  A    between atoms: _308  and  _311
REMARK  131  A    between atoms: _311  and  _312
REMARK  132  A    between atoms: _312  and  _313
REMARK  133  A    between atoms: _318  and  _320
REMARK  134  A    between atoms: _320  and  _321
REMARK  135  A    between atoms: _323  and  _325
REMARK  136  A    between atoms: _325  and  _326
REMARK  137  A    between atoms: _328  and  _330
REMARK  138  A    between atoms: _330  and  _331
REMARK  139  A    between atoms: _330  and  _333
REMARK  140  A    between atoms: _333  and  _334
REMARK  141  A    between atoms: _337  and  _339
REMARK  142  A    between atoms: _339  and  _340
REMARK  143  A    between atoms: _339  and  _342
REMARK  144  A    between atoms: _345  and  _347
REMARK  145  A    between atoms: _347  and  _348
REMARK  146  A    between atoms: _350  and  _352
REMARK  147  A    between atoms: _352  and  _353
REMARK  148  A    between atoms: _352  and  _355
REMARK  149  A    between atoms: _355  and  _356
REMARK  150  A    between atoms: _356  and  _357
REMARK  151  A    between atoms: _357  and  _358
REMARK  152  A    between atoms: _367  and  _369
REMARK  153  A    between atoms: _369  and  _370
REMARK  154  A    between atoms: _369  and  _372
REMARK  155  A    between atoms: _372  and  _373
REMARK  156  A    between atoms: _375  and  _377
REMARK  157  A    between atoms: _377  and  _378
REMARK  158  A    between atoms: _377  and  _380
REMARK  159  A    between atoms: _380  and  _381
REMARK  160  A    between atoms: _384  and  _386
REMARK  161  A    between atoms: _386  and  _387
REMARK  162  A    between atoms: _386  and  _389
REMARK  163  A    between atoms: _389  and  _390
REMARK  164  A    between atoms: _395  and  _396
REMARK  165  A    between atoms: _398  and  _400
REMARK  166  A    between atoms: _400  and  _401
REMARK  167  A    between atoms: _400  and  _403
REMARK  168  A    between atoms: _403  and  _404
REMARK  169  A    between atoms: _407  and  _409
REMARK  170  A    between atoms: _409  and  _410
REMARK  171  A    between atoms: _413  and  _415
REMARK  172  A    between atoms: _415  and  _416
REMARK  173  A    between atoms: _415  and  _418
REMARK  174  A    between atoms: _418  and  _419
REMARK  175  A    between atoms: _422  and  _424
REMARK  176  A    between atoms: _424  and  _425
REMARK  177  A    between atoms: _424  and  _427
REMARK  178  A    between atoms: _427  and  _428
REMARK  179  A    between atoms: _432  and  _433
REMARK  180  A    between atoms: _438  and  _440
REMARK  181  A    between atoms: _440  and  _441
REMARK  182  A    between atoms: _440  and  _443
REMARK  183  A    between atoms: _443  and  _444
REMARK  184  A    between atoms: _444  and  _445
REMARK  185  A    between atoms: _448  and  _450
REMARK  186  A    between atoms: _450  and  _451
REMARK  187  A    between atoms: _450  and  _453
REMARK  188  A    between atoms: _453  and  _454
REMARK  189  A    between atoms: _457  and  _459
REMARK  190  A    between atoms: _459  and  _460
REMARK  191  A    between atoms: _459  and  _462
REMARK  192  A    between atoms: _462  and  _463
REMARK  193  A    between atoms: _468  and  _470
REMARK  194  A    between atoms: _470  and  _471
REMARK  195  A    between atoms: _470  and  _473
REMARK  196  A    between atoms: _473  and  _474
REMARK  197  A    between atoms: _474  and  _475
REMARK  198  A    between atoms: _475  and  _476
REMARK  199  A    between atoms: _476  and  _477
REMARK  200  A    between atoms: _481  and  _483
REMARK  201  A    between atoms: _483  and  _484
REMARK  202  A    between atoms: _483  and  _486
REMARK  203  A    between atoms: _486  and  _487
REMARK                            x       y       z     vdW  Elec       q    Type
REMARK                         _______ _______ _______ _____ _____    ______ ____
ROOT
ATOM      1  O   HOH     1      16.239  30.000  44.996  0.00  0.00    +0.000 OA
ENDROOT
TORSDOF 0
REMARK  Name = ../refined-set-2016/3w07/3w07_pocket.pdb
REMARK  203 active torsions:
REMARK  status: ('A' for Active; 'I' for Inactive)
REMARK    1  A    between atoms: _1  and  _3
REMARK    2  A    between atoms: _3  and  _4
REMARK    3  A    between atoms: _3  and  _6
REMARK    4  A    between atoms: _6  and  _7
REMARK    5  A    between atoms: _10  and  _12
REMARK    6  A    between atoms: _12  and  _13
REMARK    7  A    between atoms: _12  and  _15
REMARK    8  A    between atoms: _15  and  _16
REMARK    9  A    between atoms: _19  and  _21
REMARK   10  A    between atoms: _21  and  _22
REMARK   11  A    between atoms: _25  and  _27
REMARK   12  A    between atoms: _27  and  _28
REMARK   13  A    between atoms: _27  and  _30
REMARK   14  A    between atoms: _30  and  _31
REMARK   15  A    between atoms: _31  and  _32
REMARK   16  A    between atoms: _34  and  _36
REMARK   17  A    between atoms: _36  and  _37
REMARK   18  A    between atoms: _36  and  _39
REMARK   19  A    between atoms: _39  and  _40
REMARK   20  A    between atoms: _43  and  _45
REMARK   21  A    between atoms: _45  and  _46
REMARK   22  A    between atoms: _45  and  _48
REMARK   23  A    between atoms: _48  and  _49
REMARK   24  A    between atoms: _49  and  _50
REMARK   25  A    between atoms: _50  and  _51
REMARK   26  A    between atoms: _51  and  _52
REMARK   27  A    between atoms: _56  and  _58
REMARK   28  A    between atoms: _58  and  _59
REMARK   29  A    between atoms: _58  and  _61
REMARK   30  A    between atoms: _61  and  _62
REMARK   31  A    between atoms: _65  and  _67
REMARK   32  A    between atoms: _67  and  _68
REMARK   33  A    between atoms: _70  and  _72
REMARK   34  A    between atoms: _72  and  _73
REMARK   35  A    between atoms: _72  and  _75
REMARK   36  A    between atoms: _75  and  _76
REMARK   37  A    between atoms: _81  and  _82
REMARK   38  A    between atoms: _85  and  _86
REMARK   39  A    between atoms: _91  and  _93
REMARK   40  A    between atoms: _93  and  _94
REMARK   41  A    between atoms: _93  and  _96
REMARK   42  A    between atoms: _96  and  _97
REMARK   43  A    between atoms: _100  and  _102
REMARK   44  A    between atoms: _102  and  _103
REMARK   45  A    between atoms: _102  and  _105
REMARK   46  A    between atoms: _105  and  _106
REMARK   47  A    between atoms: _109  and  _111
REMARK   48  A    between atoms: _111  and  _112
REMARK   49  A    between atoms: _111  and  _114
REMARK   50  A    between atoms: _114  and  _115
REMARK   51  A    between atoms: _115  and  _116
REMARK   52  A    between atoms: _116  and  _117
REMARK   53  A    between atoms: _117  and  _118
REMARK   54  A    between atoms: _122  and  _124
REMARK   55  A    between atoms: _124  and  _125
REMARK   56  A    between atoms: _124  and  _127
REMARK   57  A    between atoms: _127  and  _128
REMARK   58  A    between atoms: _131  and  _133
REMARK   59  A    between atoms: _133  and  _134
REMARK   60  A    between atoms: _133  and  _136
REMARK   61  A    between atoms: _136  and  _137
REMARK   62  A    between atoms: _142  and  _144
REMARK   63  A    between atoms: _144  and  _145
REMARK   64  A    between atoms: _144  and  _147
REMARK   65  A    between atoms: _147  and  _148
REMARK   66  A    between atoms: _151  and  _153
REMARK   67  A    between atoms: _153  and  _154
REMARK   68  A    between atoms: _153  and  _156
REMARK   69  A    between atoms: _156  and  _157
REMARK   70  A    between atoms: _160  and  _162
REMARK   71  A    between atoms: _162  and  _163
REMARK   72  A    between atoms: _162  and  _165
REMARK   73  A    between atoms: _165  and  _166
REMARK   74  A    between atoms: _166  and  _167
REMARK   75  A    between atoms: _170  and  _172
REMARK   76  A    between atoms: _172  and  _173
REMARK   77  A    between atoms: _172  and  _175
REMARK   78  A    between atoms: _175  and  _176
REMARK   79  A    between atoms: _176  and  _177
REMARK   80  A    between atoms: _179  and  _181
REMARK   81  A    between atoms: _181  and  _182
REMARK   82  A    between atoms: _181  and  _184
REMARK   83  A    between atoms: _184  and  _185
REMARK   84  A    between atoms: _187  and  _189
REMARK   85  A    between atoms: _189  and  _190
REMARK   86  A    between atoms: _189  and  _192
REMARK   87  A    between atoms: _192  and  _193
REMARK   88  A    between atoms: _198  and  _200
REMARK   89  A    between atoms: _200  and  _201
REMARK   90  A    between atoms: _204  and  _206
REMARK   91  A    between atoms: _206  and  _207
REMARK   92  A    between atoms: _206  and  _209
REMARK   93  A    between atoms: _209  and  _210
REMARK   94  A    between atoms: _213  and  _215
REMARK   95  A    between atoms: _215  and  _216
REMARK   96  A    between atoms: _215  and  _218
REMARK   97  A    between atoms: _221  and  _223
REMARK   98  A    between atoms: _223  and  _224
REMARK   99  A    between atoms: _227  and  _228
REMARK  100  A    between atoms: _233  and  _235
REMARK  101  A    between atoms: _235  and  _236
REMARK  102  A    between atoms: _235  and  _238
REMARK  103  A    between atoms: _238  and  _239
REMARK  104  A    between atoms: _241  and  _243
REMARK  105  A    between atoms: _243  and  _244
REMARK  106  A    between atoms: _243  and  _246
REMARK  107  A    between atoms: _246  and  _247
REMARK  108  A    between atoms: _250  and  _252
REMARK  109  A    between atoms: _252  and  _253
REMARK  110  A    between atoms: _252  and  _255
REMARK  111  A    between atoms: _255  and  _256
REMARK  112  A    between atoms: _256  and  _257
REMARK  113  A    between atoms: _257  and  _258
REMARK  114  A    between atoms: _267  and  _269
REMARK  115  A    between atoms: _269  and  _270
REMARK  116  A    between atoms: _269  and  _272
REMARK  117  A    between atoms: _272  and  _273
REMARK  118  A    between atoms: _276  and  _277
REMARK  119  A    between atoms: _282  and  _284
REMARK  120  A    between atoms: _284  and  _285
REMARK  121  A    between atoms: _287  and  _289
REMARK  122  A    between atoms: _289  and  _290
REMARK  123  A    between atoms: _289  and  _292
REMARK  124  A    between atoms: _295  and  _297
REMARK  125  A    between atoms: _297  and  _298
REMARK  126  A    between atoms: _300  and  _302
REMARK  127  A    between atoms: _302  and  _303
REMARK  128  A    between atoms: _306  and  _308
REMARK  129  A    between atoms: _308  and  _309
REMARK  130  A    between atoms: _308  and  _311
REMARK  131  A    between atoms: _311  and  _312
REMARK  132  A    between atoms: _312  and  _313
REMARK  133  A    between atoms: _318  and  _320
REMARK  134  A    between atoms: _320  and  _321
REMARK  135  A    between atoms: _323  and  _325
REMARK  136  A    between atoms: _325  and  _326
REMARK  137  A    between atoms: _328  and  _330
REMARK  138  A    between atoms: _330  and  _331
REMARK  139  A    between atoms: _330  and  _333
REMARK  140  A    between atoms: _333  and  _334
REMARK  141  A    between atoms: _337  and  _339
REMARK  142  A    between atoms: _339  and  _340
REMARK  143  A    between atoms: _339  and  _342
REMARK  144  A    between atoms: _345  and  _347
REMARK  145  A    between atoms: _347  and  _348
REMARK  146  A    between atoms: _350  and  _352
REMARK  147  A    between atoms: _352  and  _353
REMARK  148  A    between atoms: _352  and  _355
REMARK  149  A    between atoms: _355  and  _356
REMARK  150  A    between atoms: _356  and  _357
REMARK  151  A    between atoms: _357  and  _358
REMARK  152  A    between atoms: _367  and  _369
REMARK  153  A    between atoms: _369  and  _370
REMARK  154  A    between atoms: _369  and  _372
REMARK  155  A    between atoms: _372  and  _373
REMARK  156  A    between atoms: _375  and  _377
REMARK  157  A    between atoms: _377  and  _378
REMARK  158  A    between atoms: _377  and  _380
REMARK  159  A    between atoms: _380  and  _381
REMARK  160  A    between atoms: _384  and  _386
REMARK  161  A    between atoms: _386  and  _387
REMARK  162  A    between atoms: _386  and  _389
REMARK  163  A    between atoms: _389  and  _390
REMARK  164  A    between atoms: _395  and  _396
REMARK  165  A    between atoms: _398  and  _400
REMARK  166  A    between atoms: _400  and  _401
REMARK  167  A    between atoms: _400  and  _403
REMARK  168  A    between atoms: _403  and  _404
REMARK  169  A    between atoms: _407  and  _409
REMARK  170  A    between atoms: _409  and  _410
REMARK  171  A    between atoms: _413  and  _415
REMARK  172  A    between atoms: _415  and  _416
REMARK  173  A    between atoms: _415  and  _418
REMARK  174  A    between atoms: _418  and  _419
REMARK  175  A    between atoms: _422  and  _424
REMARK  176  A    between atoms: _424  and  _425
REMARK  177  A    between atoms: _424  and  _427
REMARK  178  A    between atoms: _427  and  _428
REMARK  179  A    between atoms: _432  and  _433
REMARK  180  A    between atoms: _438  and  _440
REMARK  181  A    between atoms: _440  and  _441
REMARK  182  A    between atoms: _440  and  _443
REMARK  183  A    between atoms: _443  and  _444
REMARK  184  A    between atoms: _444  and  _445
REMARK  185  A    between atoms: _448  and  _450
REMARK  186  A    between atoms: _450  and  _451
REMARK  187  A    between atoms: _450  and  _453
REMARK  188  A    between atoms: _453  and  _454
REMARK  189  A    between atoms: _457  and  _459
REMARK  190  A    between atoms: _459  and  _460
REMARK  191  A    between atoms: _459  and  _462
REMARK  192  A    between atoms: _462  and  _463
REMARK  193  A    between atoms: _468  and  _470
REMARK  194  A    between atoms: _470  and  _471
REMARK  195  A    between atoms: _470  and  _473
REMARK  196  A    between atoms: _473  and  _474
REMARK  197  A    between atoms: _474  and  _475
REMARK  198  A    between atoms: _475  and  _476
REMARK  199  A    between atoms: _476  and  _477
REMARK  200  A    between atoms: _481  and  _483
REMARK  201  A    between atoms: _483  and  _484
REMARK  202  A    between atoms: _483  and  _486
REMARK  203  A    between atoms: _486  and  _487
REMARK                            x       y       z     vdW  Elec       q    Type
REMARK                         _______ _______ _______ _____ _____    ______ ____
ROOT
ATOM      1  O   HOH     1      13.069  38.032  43.956  0.00  0.00    +0.000 OA
ENDROOT
TORSDOF 0
REMARK  Name = ../refined-set-2016/3w07/3w07_pocket.pdb
REMARK  203 active torsions:
REMARK  status: ('A' for Active; 'I' for Inactive)
REMARK    1  A    between atoms: _1  and  _3
REMARK    2  A    between atoms: _3  and  _4
REMARK    3  A    between atoms: _3  and  _6
REMARK    4  A    between atoms: _6  and  _7
REMARK    5  A    between atoms: _10  and  _12
REMARK    6  A    between atoms: _12  and  _13
REMARK    7  A    between atoms: _12  and  _15
REMARK    8  A    between atoms: _15  and  _16
REMARK    9  A    between atoms: _19  and  _21
REMARK   10  A    between atoms: _21  and  _22
REMARK   11  A    between atoms: _25  and  _27
REMARK   12  A    between atoms: _27  and  _28
REMARK   13  A    between atoms: _27  and  _30
REMARK   14  A    between atoms: _30  and  _31
REMARK   15  A    between atoms: _31  and  _32
REMARK   16  A    between atoms: _34  and  _36
REMARK   17  A    between atoms: _36  and  _37
REMARK   18  A    between atoms: _36  and  _39
REMARK   19  A    between atoms: _39  and  _40
REMARK   20  A    between atoms: _43  and  _45
REMARK   21  A    between atoms: _45  and  _46
REMARK   22  A    between atoms: _45  and  _48
REMARK   23  A    between atoms: _48  and  _49
REMARK   24  A    between atoms: _49  and  _50
REMARK   25  A    between atoms: _50  and  _51
REMARK   26  A    between atoms: _51  and  _52
REMARK   27  A    between atoms: _56  and  _58
REMARK   28  A    between atoms: _58  and  _59
REMARK   29  A    between atoms: _58  and  _61
REMARK   30  A    between atoms: _61  and  _62
REMARK   31  A    between atoms: _65  and  _67
REMARK   32  A    between atoms: _67  and  _68
REMARK   33  A    between atoms: _70  and  _72
REMARK   34  A    between atoms: _72  and  _73
REMARK   35  A    between atoms: _72  and  _75
REMARK   36  A    between atoms: _75  and  _76
REMARK   37  A    between atoms: _81  and  _82
REMARK   38  A    between atoms: _85  and  _86
REMARK   39  A    between atoms: _91  and  _93
REMARK   40  A    between atoms: _93  and  _94
REMARK   41  A    between atoms: _93  and  _96
REMARK   42  A    between atoms: _96  and  _97
REMARK   43  A    between atoms: _100  and  _102
REMARK   44  A    between atoms: _102  and  _103
REMARK   45  A    between atoms: _102  and  _105
REMARK   46  A    between atoms: _105  and  _106
REMARK   47  A    between atoms: _109  and  _111
REMARK   48  A    between atoms: _111  and  _112
REMARK   49  A    between atoms: _111  and  _114
REMARK   50  A    between atoms: _114  and  _115
REMARK   51  A    between atoms: _115  and  _116
REMARK   52  A    between atoms: _116  and  _117
REMARK   53  A    between atoms: _117  and  _118
REMARK   54  A    between atoms: _122  and  _124
REMARK   55  A    between atoms: _124  and  _125
REMARK   56  A    between atoms: _124  and  _127
REMARK   57  A    between atoms: _127  and  _128
REMARK   58  A    between atoms: _131  and  _133
REMARK   59  A    between atoms: _133  and  _134
REMARK   60  A    between atoms: _133  and  _136
REMARK   61  A    between atoms: _136  and  _137
REMARK   62  A    between atoms: _142  and  _144
REMARK   63  A    between atoms: _144  and  _145
REMARK   64  A    between atoms: _144  and  _147
REMARK   65  A    between atoms: _147  and  _148
REMARK   66  A    between atoms: _151  and  _153
REMARK   67  A    between atoms: _153  and  _154
REMARK   68  A    between atoms: _153  and  _156
REMARK   69  A    between atoms: _156  and  _157
REMARK   70  A    between atoms: _160  and  _162
REMARK   71  A    between atoms: _162  and  _163
REMARK   72  A    between atoms: _162  and  _165
REMARK   73  A    between atoms: _165  and  _166
REMARK   74  A    between atoms: _166  and  _167
REMARK   75  A    between atoms: _170  and  _172
REMARK   76  A    between atoms: _172  and  _173
REMARK   77  A    between atoms: _172  and  _175
REMARK   78  A    between atoms: _175  and  _176
REMARK   79  A    between atoms: _176  and  _177
REMARK   80  A    between atoms: _179  and  _181
REMARK   81  A    between atoms: _181  and  _182
REMARK   82  A    between atoms: _181  and  _184
REMARK   83  A    between atoms: _184  and  _185
REMARK   84  A    between atoms: _187  and  _189
REMARK   85  A    between atoms: _189  and  _190
REMARK   86  A    between atoms: _189  and  _192
REMARK   87  A    between atoms: _192  and  _193
REMARK   88  A    between atoms: _198  and  _200
REMARK   89  A    between atoms: _200  and  _201
REMARK   90  A    between atoms: _204  and  _206
REMARK   91  A    between atoms: _206  and  _207
REMARK   92  A    between atoms: _206  and  _209
REMARK   93  A    between atoms: _209  and  _210
REMARK   94  A    between atoms: _213  and  _215
REMARK   95  A    between atoms: _215  and  _216
REMARK   96  A    between atoms: _215  and  _218
REMARK   97  A    between atoms: _221  and  _223
REMARK   98  A    between atoms: _223  and  _224
REMARK   99  A    between atoms: _227  and  _228
REMARK  100  A    between atoms: _233  and  _235
REMARK  101  A    between atoms: _235  and  _236
REMARK  102  A    between atoms: _235  and  _238
REMARK  103  A    between atoms: _238  and  _239
REMARK  104  A    between atoms: _241  and  _243
REMARK  105  A    between atoms: _243  and  _244
REMARK  106  A    between atoms: _243  and  _246
REMARK  107  A    between atoms: _246  and  _247
REMARK  108  A    between atoms: _250  and  _252
REMARK  109  A    between atoms: _252  and  _253
REMARK  110  A    between atoms: _252  and  _255
REMARK  111  A    between atoms: _255  and  _256
REMARK  112  A    between atoms: _256  and  _257
REMARK  113  A    between atoms: _257  and  _258
REMARK  114  A    between atoms: _267  and  _269
REMARK  115  A    between atoms: _269  and  _270
REMARK  116  A    between atoms: _269  and  _272
REMARK  117  A    between atoms: _272  and  _273
REMARK  118  A    between atoms: _276  and  _277
REMARK  119  A    between atoms: _282  and  _284
REMARK  120  A    between atoms: _284  and  _285
REMARK  121  A    between atoms: _287  and  _289
REMARK  122  A    between atoms: _289  and  _290
REMARK  123  A    between atoms: _289  and  _292
REMARK  124  A    between atoms: _295  and  _297
REMARK  125  A    between atoms: _297  and  _298
REMARK  126  A    between atoms: _300  and  _302
REMARK  127  A    between atoms: _302  and  _303
REMARK  128  A    between atoms: _306  and  _308
REMARK  129  A    between atoms: _308  and  _309
REMARK  130  A    between atoms: _308  and  _311
REMARK  131  A    between atoms: _311  and  _312
REMARK  132  A    between atoms: _312  and  _313
REMARK  133  A    between atoms: _318  and  _320
REMARK  134  A    between atoms: _320  and  _321
REMARK  135  A    between atoms: _323  and  _325
REMARK  136  A    between atoms: _325  and  _326
REMARK  137  A    between atoms: _328  and  _330
REMARK  138  A    between atoms: _330  and  _331
REMARK  139  A    between atoms: _330  and  _333
REMARK  140  A    between atoms: _333  and  _334
REMARK  141  A    between atoms: _337  and  _339
REMARK  142  A    between atoms: _339  and  _340
REMARK  143  A    between atoms: _339  and  _342
REMARK  144  A    between atoms: _345  and  _347
REMARK  145  A    between atoms: _347  and  _348
REMARK  146  A    between atoms: _350  and  _352
REMARK  147  A    between atoms: _352  and  _353
REMARK  148  A    between atoms: _352  and  _355
REMARK  149  A    between atoms: _355  and  _356
REMARK  150  A    between atoms: _356  and  _357
REMARK  151  A    between atoms: _357  and  _358
REMARK  152  A    between atoms: _367  and  _369
REMARK  153  A    between atoms: _369  and  _370
REMARK  154  A    between atoms: _369  and  _372
REMARK  155  A    between atoms: _372  and  _373
REMARK  156  A    between atoms: _375  and  _377
REMARK  157  A    between atoms: _377  and  _378
REMARK  158  A    between atoms: _377  and  _380
REMARK  159  A    between atoms: _380  and  _381
REMARK  160  A    between atoms: _384  and  _386
REMARK  161  A    between atoms: _386  and  _387
REMARK  162  A    between atoms: _386  and  _389
REMARK  163  A    between atoms: _389  and  _390
REMARK  164  A    between atoms: _395  and  _396
REMARK  165  A    between atoms: _398  and  _400
REMARK  166  A    between atoms: _400  and  _401
REMARK  167  A    between atoms: _400  and  _403
REMARK  168  A    between atoms: _403  and  _404
REMARK  169  A    between atoms: _407  and  _409
REMARK  170  A    between atoms: _409  and  _410
REMARK  171  A    between atoms: _413  and  _415
REMARK  172  A    between atoms: _415  and  _416
REMARK  173  A    between atoms: _415  and  _418
REMARK  174  A    between atoms: _418  and  _419
REMARK  175  A    between atoms: _422  and  _424
REMARK  176  A    between atoms: _424  and  _425
REMARK  177  A    between atoms: _424  and  _427
REMARK  178  A    between atoms: _427  and  _428
REMARK  179  A    between atoms: _432  and  _433
REMARK  180  A    between atoms: _438  and  _440
REMARK  181  A    between atoms: _440  and  _441
REMARK  182  A    between atoms: _440  and  _443
REMARK  183  A    between atoms: _443  and  _444
REMARK  184  A    between atoms: _444  and  _445
REMARK  185  A    between atoms: _448  and  _450
REMARK  186  A    between atoms: _450  and  _451
REMARK  187  A    between atoms: _450  and  _453
REMARK  188  A    between atoms: _453  and  _454
REMARK  189  A    between atoms: _457  and  _459
REMARK  190  A    between atoms: _459  and  _460
REMARK  191  A    between atoms: _459  and  _462
REMARK  192  A    between atoms: _462  and  _463
REMARK  193  A    between atoms: _468  and  _470
REMARK  194  A    between atoms: _470  and  _471
REMARK  195  A    between atoms: _470  and  _473
REMARK  196  A    between atoms: _473  and  _474
REMARK  197  A    between atoms: _474  and  _475
REMARK  198  A    between atoms: _475  and  _476
REMARK  199  A    between atoms: _476  and  _477
REMARK  200  A    between atoms: _481  and  _483
REMARK  201  A    between atoms: _483  and  _484
REMARK  202  A    between atoms: _483  and  _486
REMARK  203  A    between atoms: _486  and  _487
REMARK                            x       y       z     vdW  Elec       q    Type
REMARK                         _______ _______ _______ _____ _____    ______ ____
ROOT
ATOM      1  O   HOH     1      26.347  35.702  44.202  0.00  0.00    +0.000 OA
ENDROOT
TORSDOF 0
REMARK  Name = ../refined-set-2016/3w07/3w07_pocket.pdb
REMARK  203 active torsions:
REMARK  status: ('A' for Active; 'I' for Inactive)
REMARK    1  A    between atoms: _1  and  _3
REMARK    2  A    between atoms: _3  and  _4
REMARK    3  A    between atoms: _3  and  _6
REMARK    4  A    between atoms: _6  and  _7
REMARK    5  A    between atoms: _10  and  _12
REMARK    6  A    between atoms: _12  and  _13
REMARK    7  A    between atoms: _12  and  _15
REMARK    8  A    between atoms: _15  and  _16
REMARK    9  A    between atoms: _19  and  _21
REMARK   10  A    between atoms: _21  and  _22
REMARK   11  A    between atoms: _25  and  _27
REMARK   12  A    between atoms: _27  and  _28
REMARK   13  A    between atoms: _27  and  _30
REMARK   14  A    between atoms: _30  and  _31
REMARK   15  A    between atoms: _31  and  _32
REMARK   16  A    between atoms: _34  and  _36
REMARK   17  A    between atoms: _36  and  _37
REMARK   18  A    between atoms: _36  and  _39
REMARK   19  A    between atoms: _39  and  _40
REMARK   20  A    between atoms: _43  and  _45
REMARK   21  A    between atoms: _45  and  _46
REMARK   22  A    between atoms: _45  and  _48
REMARK   23  A    between atoms: _48  and  _49
REMARK   24  A    between atoms: _49  and  _50
REMARK   25  A    between atoms: _50  and  _51
REMARK   26  A    between atoms: _51  and  _52
REMARK   27  A    between atoms: _56  and  _58
REMARK   28  A    between atoms: _58  and  _59
REMARK   29  A    between atoms: _58  and  _61
REMARK   30  A    between atoms: _61  and  _62
REMARK   31  A    between atoms: _65  and  _67
REMARK   32  A    between atoms: _67  and  _68
REMARK   33  A    between atoms: _70  and  _72
REMARK   34  A    between atoms: _72  and  _73
REMARK   35  A    between atoms: _72  and  _75
REMARK   36  A    between atoms: _75  and  _76
REMARK   37  A    between atoms: _81  and  _82
REMARK   38  A    between atoms: _85  and  _86
REMARK   39  A    between atoms: _91  and  _93
REMARK   40  A    between atoms: _93  and  _94
REMARK   41  A    between atoms: _93  and  _96
REMARK   42  A    between atoms: _96  and  _97
REMARK   43  A    between atoms: _100  and  _102
REMARK   44  A    between atoms: _102  and  _103
REMARK   45  A    between atoms: _102  and  _105
REMARK   46  A    between atoms: _105  and  _106
REMARK   47  A    between atoms: _109  and  _111
REMARK   48  A    between atoms: _111  and  _112
REMARK   49  A    between atoms: _111  and  _114
REMARK   50  A    between atoms: _114  and  _115
REMARK   51  A    between atoms: _115  and  _116
REMARK   52  A    between atoms: _116  and  _117
REMARK   53  A    between atoms: _117  and  _118
REMARK   54  A    between atoms: _122  and  _124
REMARK   55  A    between atoms: _124  and  _125
REMARK   56  A    between atoms: _124  and  _127
REMARK   57  A    between atoms: _127  and  _128
REMARK   58  A    between atoms: _131  and  _133
REMARK   59  A    between atoms: _133  and  _134
REMARK   60  A    between atoms: _133  and  _136
REMARK   61  A    between atoms: _136  and  _137
REMARK   62  A    between atoms: _142  and  _144
REMARK   63  A    between atoms: _144  and  _145
REMARK   64  A    between atoms: _144  and  _147
REMARK   65  A    between atoms: _147  and  _148
REMARK   66  A    between atoms: _151  and  _153
REMARK   67  A    between atoms: _153  and  _154
REMARK   68  A    between atoms: _153  and  _156
REMARK   69  A    between atoms: _156  and  _157
REMARK   70  A    between atoms: _160  and  _162
REMARK   71  A    between atoms: _162  and  _163
REMARK   72  A    between atoms: _162  and  _165
REMARK   73  A    between atoms: _165  and  _166
REMARK   74  A    between atoms: _166  and  _167
REMARK   75  A    between atoms: _170  and  _172
REMARK   76  A    between atoms: _172  and  _173
REMARK   77  A    between atoms: _172  and  _175
REMARK   78  A    between atoms: _175  and  _176
REMARK   79  A    between atoms: _176  and  _177
REMARK   80  A    between atoms: _179  and  _181
REMARK   81  A    between atoms: _181  and  _182
REMARK   82  A    between atoms: _181  and  _184
REMARK   83  A    between atoms: _184  and  _185
REMARK   84  A    between atoms: _187  and  _189
REMARK   85  A    between atoms: _189  and  _190
REMARK   86  A    between atoms: _189  and  _192
REMARK   87  A    between atoms: _192  and  _193
REMARK   88  A    between atoms: _198  and  _200
REMARK   89  A    between atoms: _200  and  _201
REMARK   90  A    between atoms: _204  and  _206
REMARK   91  A    between atoms: _206  and  _207
REMARK   92  A    between atoms: _206  and  _209
REMARK   93  A    between atoms: _209  and  _210
REMARK   94  A    between atoms: _213  and  _215
REMARK   95  A    between atoms: _215  and  _216
REMARK   96  A    between atoms: _215  and  _218
REMARK   97  A    between atoms: _221  and  _223
REMARK   98  A    between atoms: _223  and  _224
REMARK   99  A    between atoms: _227  and  _228
REMARK  100  A    between atoms: _233  and  _235
REMARK  101  A    between atoms: _235  and  _236
REMARK  102  A    between atoms: _235  and  _238
REMARK  103  A    between atoms: _238  and  _239
REMARK  104  A    between atoms: _241  and  _243
REMARK  105  A    between atoms: _243  and  _244
REMARK  106  A    between atoms: _243  and  _246
REMARK  107  A    between atoms: _246  and  _247
REMARK  108  A    between atoms: _250  and  _252
REMARK  109  A    between atoms: _252  and  _253
REMARK  110  A    between atoms: _252  and  _255
REMARK  111  A    between atoms: _255  and  _256
REMARK  112  A    between atoms: _256  and  _257
REMARK  113  A    between atoms: _257  and  _258
REMARK  114  A    between atoms: _267  and  _269
REMARK  115  A    between atoms: _269  and  _270
REMARK  116  A    between atoms: _269  and  _272
REMARK  117  A    between atoms: _272  and  _273
REMARK  118  A    between atoms: _276  and  _277
REMARK  119  A    between atoms: _282  and  _284
REMARK  120  A    between atoms: _284  and  _285
REMARK  121  A    between atoms: _287  and  _289
REMARK  122  A    between atoms: _289  and  _290
REMARK  123  A    between atoms: _289  and  _292
REMARK  124  A    between atoms: _295  and  _297
REMARK  125  A    between atoms: _297  and  _298
REMARK  126  A    between atoms: _300  and  _302
REMARK  127  A    between atoms: _302  and  _303
REMARK  128  A    between atoms: _306  and  _308
REMARK  129  A    between atoms: _308  and  _309
REMARK  130  A    between atoms: _308  and  _311
REMARK  131  A    between atoms: _311  and  _312
REMARK  132  A    between atoms: _312  and  _313
REMARK  133  A    between atoms: _318  and  _320
REMARK  134  A    between atoms: _320  and  _321
REMARK  135  A    between atoms: _323  and  _325
REMARK  136  A    between atoms: _325  and  _326
REMARK  137  A    between atoms: _328  and  _330
REMARK  138  A    between atoms: _330  and  _331
REMARK  139  A    between atoms: _330  and  _333
REMARK  140  A    between atoms: _333  and  _334
REMARK  141  A    between atoms: _337  and  _339
REMARK  142  A    between atoms: _339  and  _340
REMARK  143  A    between atoms: _339  and  _342
REMARK  144  A    between atoms: _345  and  _347
REMARK  145  A    between atoms: _347  and  _348
REMARK  146  A    between atoms: _350  and  _352
REMARK  147  A    between atoms: _352  and  _353
REMARK  148  A    between atoms: _352  and  _355
REMARK  149  A    between atoms: _355  and  _356
REMARK  150  A    between atoms: _356  and  _357
REMARK  151  A    between atoms: _357  and  _358
REMARK  152  A    between atoms: _367  and  _369
REMARK  153  A    between atoms: _369  and  _370
REMARK  154  A    between atoms: _369  and  _372
REMARK  155  A    between atoms: _372  and  _373
REMARK  156  A    between atoms: _375  and  _377
REMARK  157  A    between atoms: _377  and  _378
REMARK  158  A    between atoms: _377  and  _380
REMARK  159  A    between atoms: _380  and  _381
REMARK  160  A    between atoms: _384  and  _386
REMARK  161  A    between atoms: _386  and  _387
REMARK  162  A    between atoms: _386  and  _389
REMARK  163  A    between atoms: _389  and  _390
REMARK  164  A    between atoms: _395  and  _396
REMARK  165  A    between atoms: _398  and  _400
REMARK  166  A    between atoms: _400  and  _401
REMARK  167  A    between atoms: _400  and  _403
REMARK  168  A    between atoms: _403  and  _404
REMARK  169  A    between atoms: _407  and  _409
REMARK  170  A    between atoms: _409  and  _410
REMARK  171  A    between atoms: _413  and  _415
REMARK  172  A    between atoms: _415  and  _416
REMARK  173  A    between atoms: _415  and  _418
REMARK  174  A    between atoms: _418  and  _419
REMARK  175  A    between atoms: _422  and  _424
REMARK  176  A    between atoms: _424  and  _425
REMARK  177  A    between atoms: _424  and  _427
REMARK  178  A    between atoms: _427  and  _428
REMARK  179  A    between atoms: _432  and  _433
REMARK  180  A    between atoms: _438  and  _440
REMARK  181  A    between atoms: _440  and  _441
REMARK  182  A    between atoms: _440  and  _443
REMARK  183  A    between atoms: _443  and  _444
REMARK  184  A    between atoms: _444  and  _445
REMARK  185  A    between atoms: _448  and  _450
REMARK  186  A    between atoms: _450  and  _451
REMARK  187  A    between atoms: _450  and  _453
REMARK  188  A    between atoms: _453  and  _454
REMARK  189  A    between atoms: _457  and  _459
REMARK  190  A    between atoms: _459  and  _460
REMARK  191  A    between atoms: _459  and  _462
REMARK  192  A    between atoms: _462  and  _463
REMARK  193  A    between atoms: _468  and  _470
REMARK  194  A    between atoms: _470  and  _471
REMARK  195  A    between atoms: _470  and  _473
REMARK  196  A    between atoms: _473  and  _474
REMARK  197  A    between atoms: _474  and  _475
REMARK  198  A    between atoms: _475  and  _476
REMARK  199  A    between atoms: _476  and  _477
REMARK  200  A    between atoms: _481  and  _483
REMARK  201  A    between atoms: _483  and  _484
REMARK  202  A    between atoms: _483  and  _486
REMARK  203  A    between atoms: _486  and  _487
REMARK                            x       y       z     vdW  Elec       q    Type
REMARK                         _______ _______ _______ _____ _____    ______ ____
ROOT
ATOM      1  O   HOH     1      15.247  34.945  43.895  0.00  0.00    +0.000 OA
ENDROOT
TORSDOF 0
REMARK  Name = ../refined-set-2016/3w07/3w07_pocket.pdb
REMARK  203 active torsions:
REMARK  status: ('A' for Active; 'I' for Inactive)
REMARK    1  A    between atoms: _1  and  _3
REMARK    2  A    between atoms: _3  and  _4
REMARK    3  A    between atoms: _3  and  _6
REMARK    4  A    between atoms: _6  and  _7
REMARK    5  A    between atoms: _10  and  _12
REMARK    6  A    between atoms: _12  and  _13
REMARK    7  A    between atoms: _12  and  _15
REMARK    8  A    between atoms: _15  and  _16
REMARK    9  A    between atoms: _19  and  _21
REMARK   10  A    between atoms: _21  and  _22
REMARK   11  A    between atoms: _25  and  _27
REMARK   12  A    between atoms: _27  and  _28
REMARK   13  A    between atoms: _27  and  _30
REMARK   14  A    between atoms: _30  and  _31
REMARK   15  A    between atoms: _31  and  _32
REMARK   16  A    between atoms: _34  and  _36
REMARK   17  A    between atoms: _36  and  _37
REMARK   18  A    between atoms: _36  and  _39
REMARK   19  A    between atoms: _39  and  _40
REMARK   20  A    between atoms: _43  and  _45
REMARK   21  A    between atoms: _45  and  _46
REMARK   22  A    between atoms: _45  and  _48
REMARK   23  A    between atoms: _48  and  _49
REMARK   24  A    between atoms: _49  and  _50
REMARK   25  A    between atoms: _50  and  _51
REMARK   26  A    between atoms: _51  and  _52
REMARK   27  A    between atoms: _56  and  _58
REMARK   28  A    between atoms: _58  and  _59
REMARK   29  A    between atoms: _58  and  _61
REMARK   30  A    between atoms: _61  and  _62
REMARK   31  A    between atoms: _65  and  _67
REMARK   32  A    between atoms: _67  and  _68
REMARK   33  A    between atoms: _70  and  _72
REMARK   34  A    between atoms: _72  and  _73
REMARK   35  A    between atoms: _72  and  _75
REMARK   36  A    between atoms: _75  and  _76
REMARK   37  A    between atoms: _81  and  _82
REMARK   38  A    between atoms: _85  and  _86
REMARK   39  A    between atoms: _91  and  _93
REMARK   40  A    between atoms: _93  and  _94
REMARK   41  A    between atoms: _93  and  _96
REMARK   42  A    between atoms: _96  and  _97
REMARK   43  A    between atoms: _100  and  _102
REMARK   44  A    between atoms: _102  and  _103
REMARK   45  A    between atoms: _102  and  _105
REMARK   46  A    between atoms: _105  and  _106
REMARK   47  A    between atoms: _109  and  _111
REMARK   48  A    between atoms: _111  and  _112
REMARK   49  A    between atoms: _111  and  _114
REMARK   50  A    between atoms: _114  and  _115
REMARK   51  A    between atoms: _115  and  _116
REMARK   52  A    between atoms: _116  and  _117
REMARK   53  A    between atoms: _117  and  _118
REMARK   54  A    between atoms: _122  and  _124
REMARK   55  A    between atoms: _124  and  _125
REMARK   56  A    between atoms: _124  and  _127
REMARK   57  A    between atoms: _127  and  _128
REMARK   58  A    between atoms: _131  and  _133
REMARK   59  A    between atoms: _133  and  _134
REMARK   60  A    between atoms: _133  and  _136
REMARK   61  A    between atoms: _136  and  _137
REMARK   62  A    between atoms: _142  and  _144
REMARK   63  A    between atoms: _144  and  _145
REMARK   64  A    between atoms: _144  and  _147
REMARK   65  A    between atoms: _147  and  _148
REMARK   66  A    between atoms: _151  and  _153
REMARK   67  A    between atoms: _153  and  _154
REMARK   68  A    between atoms: _153  and  _156
REMARK   69  A    between atoms: _156  and  _157
REMARK   70  A    between atoms: _160  and  _162
REMARK   71  A    between atoms: _162  and  _163
REMARK   72  A    between atoms: _162  and  _165
REMARK   73  A    between atoms: _165  and  _166
REMARK   74  A    between atoms: _166  and  _167
REMARK   75  A    between atoms: _170  and  _172
REMARK   76  A    between atoms: _172  and  _173
REMARK   77  A    between atoms: _172  and  _175
REMARK   78  A    between atoms: _175  and  _176
REMARK   79  A    between atoms: _176  and  _177
REMARK   80  A    between atoms: _179  and  _181
REMARK   81  A    between atoms: _181  and  _182
REMARK   82  A    between atoms: _181  and  _184
REMARK   83  A    between atoms: _184  and  _185
REMARK   84  A    between atoms: _187  and  _189
REMARK   85  A    between atoms: _189  and  _190
REMARK   86  A    between atoms: _189  and  _192
REMARK   87  A    between atoms: _192  and  _193
REMARK   88  A    between atoms: _198  and  _200
REMARK   89  A    between atoms: _200  and  _201
REMARK   90  A    between atoms: _204  and  _206
REMARK   91  A    between atoms: _206  and  _207
REMARK   92  A    between atoms: _206  and  _209
REMARK   93  A    between atoms: _209  and  _210
REMARK   94  A    between atoms: _213  and  _215
REMARK   95  A    between atoms: _215  and  _216
REMARK   96  A    between atoms: _215  and  _218
REMARK   97  A    between atoms: _221  and  _223
REMARK   98  A    between atoms: _223  and  _224
REMARK   99  A    between atoms: _227  and  _228
REMARK  100  A    between atoms: _233  and  _235
REMARK  101  A    between atoms: _235  and  _236
REMARK  102  A    between atoms: _235  and  _238
REMARK  103  A    between atoms: _238  and  _239
REMARK  104  A    between atoms: _241  and  _243
REMARK  105  A    between atoms: _243  and  _244
REMARK  106  A    between atoms: _243  and  _246
REMARK  107  A    between atoms: _246  and  _247
REMARK  108  A    between atoms: _250  and  _252
REMARK  109  A    between atoms: _252  and  _253
REMARK  110  A    between atoms: _252  and  _255
REMARK  111  A    between atoms: _255  and  _256
REMARK  112  A    between atoms: _256  and  _257
REMARK  113  A    between atoms: _257  and  _258
REMARK  114  A    between atoms: _267  and  _269
REMARK  115  A    between atoms: _269  and  _270
REMARK  116  A    between atoms: _269  and  _272
REMARK  117  A    between atoms: _272  and  _273
REMARK  118  A    between atoms: _276  and  _277
REMARK  119  A    between atoms: _282  and  _284
REMARK  120  A    between atoms: _284  and  _285
REMARK  121  A    between atoms: _287  and  _289
REMARK  122  A    between atoms: _289  and  _290
REMARK  123  A    between atoms: _289  and  _292
REMARK  124  A    between atoms: _295  and  _297
REMARK  125  A    between atoms: _297  and  _298
REMARK  126  A    between atoms: _300  and  _302
REMARK  127  A    between atoms: _302  and  _303
REMARK  128  A    between atoms: _306  and  _308
REMARK  129  A    between atoms: _308  and  _309
REMARK  130  A    between atoms: _308  and  _311
REMARK  131  A    between atoms: _311  and  _312
REMARK  132  A    between atoms: _312  and  _313
REMARK  133  A    between atoms: _318  and  _320
REMARK  134  A    between atoms: _320  and  _321
REMARK  135  A    between atoms: _323  and  _325
REMARK  136  A    between atoms: _325  and  _326
REMARK  137  A    between atoms: _328  and  _330
REMARK  138  A    between atoms: _330  and  _331
REMARK  139  A    between atoms: _330  and  _333
REMARK  140  A    between atoms: _333  and  _334
REMARK  141  A    between atoms: _337  and  _339
REMARK  142  A    between atoms: _339  and  _340
REMARK  143  A    between atoms: _339  and  _342
REMARK  144  A    between atoms: _345  and  _347
REMARK  145  A    between atoms: _347  and  _348
REMARK  146  A    between atoms: _350  and  _352
REMARK  147  A    between atoms: _352  and  _353
REMARK  148  A    between atoms: _352  and  _355
REMARK  149  A    between atoms: _355  and  _356
REMARK  150  A    between atoms: _356  and  _357
REMARK  151  A    between atoms: _357  and  _358
REMARK  152  A    between atoms: _367  and  _369
REMARK  153  A    between atoms: _369  and  _370
REMARK  154  A    between atoms: _369  and  _372
REMARK  155  A    between atoms: _372  and  _373
REMARK  156  A    between atoms: _375  and  _377
REMARK  157  A    between atoms: _377  and  _378
REMARK  158  A    between atoms: _377  and  _380
REMARK  159  A    between atoms: _380  and  _381
REMARK  160  A    between atoms: _384  and  _386
REMARK  161  A    between atoms: _386  and  _387
REMARK  162  A    between atoms: _386  and  _389
REMARK  163  A    between atoms: _389  and  _390
REMARK  164  A    between atoms: _395  and  _396
REMARK  165  A    between atoms: _398  and  _400
REMARK  166  A    between atoms: _400  and  _401
REMARK  167  A    between atoms: _400  and  _403
REMARK  168  A    between atoms: _403  and  _404
REMARK  169  A    between atoms: _407  and  _409
REMARK  170  A    between atoms: _409  and  _410
REMARK  171  A    between atoms: _413  and  _415
REMARK  172  A    between atoms: _415  and  _416
REMARK  173  A    between atoms: _415  and  _418
REMARK  174  A    between atoms: _418  and  _419
REMARK  175  A    between atoms: _422  and  _424
REMARK  176  A    between atoms: _424  and  _425
REMARK  177  A    between atoms: _424  and  _427
REMARK  178  A    between atoms: _427  and  _428
REMARK  179  A    between atoms: _432  and  _433
REMARK  180  A    between atoms: _438  and  _440
REMARK  181  A    between atoms: _440  and  _441
REMARK  182  A    between atoms: _440  and  _443
REMARK  183  A    between atoms: _443  and  _444
REMARK  184  A    between atoms: _444  and  _445
REMARK  185  A    between atoms: _448  and  _450
REMARK  186  A    between atoms: _450  and  _451
REMARK  187  A    between atoms: _450  and  _453
REMARK  188  A    between atoms: _453  and  _454
REMARK  189  A    between atoms: _457  and  _459
REMARK  190  A    between atoms: _459  and  _460
REMARK  191  A    between atoms: _459  and  _462
REMARK  192  A    between atoms: _462  and  _463
REMARK  193  A    between atoms: _468  and  _470
REMARK  194  A    between atoms: _470  and  _471
REMARK  195  A    between atoms: _470  and  _473
REMARK  196  A    between atoms: _473  and  _474
REMARK  197  A    between atoms: _474  and  _475
REMARK  198  A    between atoms: _475  and  _476
REMARK  199  A    between atoms: _476  and  _477
REMARK  200  A    between atoms: _481  and  _483
REMARK  201  A    between atoms: _483  and  _484
REMARK  202  A    between atoms: _483  and  _486
REMARK  203  A    between atoms: _486  and  _487
REMARK                            x       y       z     vdW  Elec       q    Type
REMARK                         _______ _______ _______ _____ _____    ______ ____
ROOT
ATOM      1  O   HOH     1      23.629  35.642  44.560  0.00  0.00    +0.000 OA
ENDROOT
TORSDOF 0
