REMARK  Name = ../refined-set-2016/4mhy/4mhy_pocket.pdb
REMARK  148 active torsions:
REMARK  status: ('A' for Active; 'I' for Inactive)
REMARK    1  A    between atoms: _1  and  _3
REMARK    2  A    between atoms: _3  and  _4
REMARK    3  A    between atoms: _3  and  _6
REMARK    4  A    between atoms: _6  and  _7
REMARK    5  A    between atoms: _12  and  _14
REMARK    6  A    between atoms: _14  and  _15
REMARK    7  A    between atoms: _14  and  _17
REMARK    8  A    between atoms: _17  and  _18
REMARK    9  A    between atoms: _21  and  _23
REMARK   10  A    between atoms: _23  and  _24
REMARK   11  A    between atoms: _23  and  _26
REMARK   12  A    between atoms: _26  and  _27
REMARK   13  A    between atoms: _30  and  _32
REMARK   14  A    between atoms: _32  and  _33
REMARK   15  A    between atoms: _32  and  _35
REMARK   16  A    between atoms: _35  and  _36
REMARK   17  A    between atoms: _42  and  _44
REMARK   18  A    between atoms: _44  and  _45
REMARK   19  A    between atoms: _44  and  _47
REMARK   20  A    between atoms: _47  and  _48
REMARK   21  A    between atoms: _51  and  _53
REMARK   22  A    between atoms: _53  and  _54
REMARK   23  A    between atoms: _53  and  _56
REMARK   24  A    between atoms: _56  and  _57
REMARK   25  A    between atoms: _57  and  _59
REMARK   26  A    between atoms: _59  and  ZN_366
REMARK   27  A    between atoms: _60  and  _62
REMARK   28  A    between atoms: _62  and  _63
REMARK   29  A    between atoms: _62  and  _65
REMARK   30  A    between atoms: _65  and  _66
REMARK   31  A    between atoms: _68  and  _70
REMARK   32  A    between atoms: _70  and  _71
REMARK   33  A    between atoms: _70  and  _73
REMARK   34  A    between atoms: _73  and  _74
REMARK   35  A    between atoms: _74  and  _75
REMARK   36  A    between atoms: _78  and  _80
REMARK   37  A    between atoms: _80  and  _81
REMARK   38  A    between atoms: _80  and  _83
REMARK   39  A    between atoms: _83  and  _84
REMARK   40  A    between atoms: _84  and  _85
REMARK   41  A    between atoms: _85  and  _87
REMARK   42  A    between atoms: _87  and  ZN_366
REMARK   43  A    between atoms: _88  and  _90
REMARK   44  A    between atoms: _90  and  _91
REMARK   45  A    between atoms: _94  and  _96
REMARK   46  A    between atoms: _96  and  _97
REMARK   47  A    between atoms: _96  and  _99
REMARK   48  A    between atoms: _99  and  _100
REMARK   49  A    between atoms: _110  and  _112
REMARK   50  A    between atoms: _112  and  _113
REMARK   51  A    between atoms: _112  and  _115
REMARK   52  A    between atoms: _115  and  _116
REMARK   53  A    between atoms: _118  and  _120
REMARK   54  A    between atoms: _120  and  _121
REMARK   55  A    between atoms: _120  and  _123
REMARK   56  A    between atoms: _123  and  _124
REMARK   57  A    between atoms: _127  and  _129
REMARK   58  A    between atoms: _129  and  _130
REMARK   59  A    between atoms: _129  and  _132
REMARK   60  A    between atoms: _132  and  _133
REMARK   61  A    between atoms: _136  and  _138
REMARK   62  A    between atoms: _138  and  _139
REMARK   63  A    between atoms: _138  and  _141
REMARK   64  A    between atoms: _141  and  _142
REMARK   65  A    between atoms: _145  and  _147
REMARK   66  A    between atoms: _147  and  _148
REMARK   67  A    between atoms: _147  and  _150
REMARK   68  A    between atoms: _150  and  _151
REMARK   69  A    between atoms: _154  and  _156
REMARK   70  A    between atoms: _156  and  _157
REMARK   71  A    between atoms: _156  and  _159
REMARK   72  A    between atoms: _159  and  _160
REMARK   73  A    between atoms: _163  and  _165
REMARK   74  A    between atoms: _165  and  _166
REMARK   75  A    between atoms: _165  and  _168
REMARK   76  A    between atoms: _168  and  _169
REMARK   77  A    between atoms: _174  and  _175
REMARK   78  A    between atoms: _177  and  _179
REMARK   79  A    between atoms: _179  and  _180
REMARK   80  A    between atoms: _179  and  _182
REMARK   81  A    between atoms: _182  and  _183
REMARK   82  A    between atoms: _186  and  _188
REMARK   83  A    between atoms: _188  and  _189
REMARK   84  A    between atoms: _191  and  _193
REMARK   85  A    between atoms: _193  and  _194
REMARK   86  A    between atoms: _193  and  _196
REMARK   87  A    between atoms: _196  and  _197
REMARK   88  A    between atoms: _203  and  _205
REMARK   89  A    between atoms: _205  and  _206
REMARK   90  A    between atoms: _205  and  _208
REMARK   91  A    between atoms: _208  and  _209
REMARK   92  A    between atoms: _212  and  _214
REMARK   93  A    between atoms: _214  and  _215
REMARK   94  A    between atoms: _214  and  _217
REMARK   95  A    between atoms: _217  and  _218
REMARK   96  A    between atoms: _218  and  _219
REMARK   97  A    between atoms: _222  and  _224
REMARK   98  A    between atoms: _224  and  _225
REMARK   99  A    between atoms: _224  and  _227
REMARK  100  A    between atoms: _227  and  _228
REMARK  101  A    between atoms: _231  and  _233
REMARK  102  A    between atoms: _233  and  _234
REMARK  103  A    between atoms: _233  and  _236
REMARK  104  A    between atoms: _236  and  _237
REMARK  105  A    between atoms: _240  and  _242
REMARK  106  A    between atoms: _242  and  _243
REMARK  107  A    between atoms: _242  and  _245
REMARK  108  A    between atoms: _245  and  _246
REMARK  109  A    between atoms: _251  and  _253
REMARK  110  A    between atoms: _253  and  _254
REMARK  111  A    between atoms: _253  and  _256
REMARK  112  A    between atoms: _256  and  _257
REMARK  113  A    between atoms: _260  and  _262
REMARK  114  A    between atoms: _262  and  _263
REMARK  115  A    between atoms: _262  and  _265
REMARK  116  A    between atoms: _265  and  _266
REMARK  117  A    between atoms: _271  and  _273
REMARK  118  A    between atoms: _273  and  _274
REMARK  119  A    between atoms: _273  and  _276
REMARK  120  A    between atoms: _276  and  _277
REMARK  121  A    between atoms: _281  and  _282
REMARK  122  A    between atoms: _287  and  _289
REMARK  123  A    between atoms: _289  and  _290
REMARK  124  A    between atoms: _289  and  _292
REMARK  125  A    between atoms: _292  and  _293
REMARK  126  A    between atoms: _296  and  _297
REMARK  127  A    between atoms: _302  and  _304
REMARK  128  A    between atoms: _304  and  _305
REMARK  129  A    between atoms: _304  and  _307
REMARK  130  A    between atoms: _307  and  _308
REMARK  131  A    between atoms: _315  and  _316
REMARK  132  A    between atoms: _321  and  _323
REMARK  133  A    between atoms: _323  and  _324
REMARK  134  A    between atoms: _323  and  _326
REMARK  135  A    between atoms: _326  and  _327
REMARK  136  A    between atoms: _330  and  _332
REMARK  137  A    between atoms: _332  and  _333
REMARK  138  A    between atoms: _332  and  _335
REMARK  139  A    between atoms: _335  and  _336
REMARK  140  A    between atoms: _346  and  _348
REMARK  141  A    between atoms: _348  and  _349
REMARK  142  A    between atoms: _348  and  _351
REMARK  143  A    between atoms: _351  and  _352
REMARK  144  A    between atoms: _356  and  ZN_366
REMARK  145  A    between atoms: _357  and  _359
REMARK  146  A    between atoms: _359  and  _360
REMARK  147  A    between atoms: _359  and  _362
REMARK  148  A    between atoms: _362  and  _363
REMARK                            x       y       z     vdW  Elec       q    Type
REMARK                         _______ _______ _______ _____ _____    ______ ____
ROOT
ATOM      1  CB  HIS A   1      -9.739  17.563 -11.112  0.00  0.00    +0.072 C 
ENDROOT
BRANCH   1   2
ATOM      2  CG  HIS A   1     -10.261  17.169  -9.742  0.00  0.00    +0.082 A 
ATOM      3  ND1 HIS A   1      -9.524  17.294  -8.617  0.00  0.00    -0.227 NA
ATOM      4  CE1 HIS A   1     -10.235  16.874  -7.557  0.00  0.00    +0.199 A 
ATOM      5  NE2 HIS A   1     -11.443  16.489  -7.994  0.00  0.00    -0.221 NA
ATOM      6  CD2 HIS A   1     -11.501  16.671  -9.340  0.00  0.00    +0.115 A 
ENDBRANCH   1   2
BRANCH   1   7
ATOM      7  CA  HIS A   1      -9.176  16.393 -11.950  0.00  0.00    +0.139 C 
BRANCH   7   8
ATOM      8  N   HIS A   1     -10.249  15.584 -12.559  0.00  0.00    -0.239 NA
ATOM      9  H   HIS A   1     -10.965  15.137 -11.951  0.00  0.00    +0.142 HD
ENDBRANCH   7   8
BRANCH   7  10
ATOM     10  C   HIS A   1      -8.250  15.526 -11.142  0.00  0.00    +0.224 C 
ATOM     11  O   HIS A   1      -8.695  14.566 -10.508  0.00  0.00    -0.287 OA
ENDBRANCH   7  10
ENDBRANCH   1   7
TORSDOF 4
REMARK  Name = ../refined-set-2016/4mhy/4mhy_pocket.pdb
REMARK  148 active torsions:
REMARK  status: ('A' for Active; 'I' for Inactive)
REMARK    1  A    between atoms: _1  and  _3
REMARK    2  A    between atoms: _3  and  _4
REMARK    3  A    between atoms: _3  and  _6
REMARK    4  A    between atoms: _6  and  _7
REMARK    5  A    between atoms: _12  and  _14
REMARK    6  A    between atoms: _14  and  _15
REMARK    7  A    between atoms: _14  and  _17
REMARK    8  A    between atoms: _17  and  _18
REMARK    9  A    between atoms: _21  and  _23
REMARK   10  A    between atoms: _23  and  _24
REMARK   11  A    between atoms: _23  and  _26
REMARK   12  A    between atoms: _26  and  _27
REMARK   13  A    between atoms: _30  and  _32
REMARK   14  A    between atoms: _32  and  _33
REMARK   15  A    between atoms: _32  and  _35
REMARK   16  A    between atoms: _35  and  _36
REMARK   17  A    between atoms: _42  and  _44
REMARK   18  A    between atoms: _44  and  _45
REMARK   19  A    between atoms: _44  and  _47
REMARK   20  A    between atoms: _47  and  _48
REMARK   21  A    between atoms: _51  and  _53
REMARK   22  A    between atoms: _53  and  _54
REMARK   23  A    between atoms: _53  and  _56
REMARK   24  A    between atoms: _56  and  _57
REMARK   25  A    between atoms: _57  and  _59
REMARK   26  A    between atoms: _59  and  ZN_366
REMARK   27  A    between atoms: _60  and  _62
REMARK   28  A    between atoms: _62  and  _63
REMARK   29  A    between atoms: _62  and  _65
REMARK   30  A    between atoms: _65  and  _66
REMARK   31  A    between atoms: _68  and  _70
REMARK   32  A    between atoms: _70  and  _71
REMARK   33  A    between atoms: _70  and  _73
REMARK   34  A    between atoms: _73  and  _74
REMARK   35  A    between atoms: _74  and  _75
REMARK   36  A    between atoms: _78  and  _80
REMARK   37  A    between atoms: _80  and  _81
REMARK   38  A    between atoms: _80  and  _83
REMARK   39  A    between atoms: _83  and  _84
REMARK   40  A    between atoms: _84  and  _85
REMARK   41  A    between atoms: _85  and  _87
REMARK   42  A    between atoms: _87  and  ZN_366
REMARK   43  A    between atoms: _88  and  _90
REMARK   44  A    between atoms: _90  and  _91
REMARK   45  A    between atoms: _94  and  _96
REMARK   46  A    between atoms: _96  and  _97
REMARK   47  A    between atoms: _96  and  _99
REMARK   48  A    between atoms: _99  and  _100
REMARK   49  A    between atoms: _110  and  _112
REMARK   50  A    between atoms: _112  and  _113
REMARK   51  A    between atoms: _112  and  _115
REMARK   52  A    between atoms: _115  and  _116
REMARK   53  A    between atoms: _118  and  _120
REMARK   54  A    between atoms: _120  and  _121
REMARK   55  A    between atoms: _120  and  _123
REMARK   56  A    between atoms: _123  and  _124
REMARK   57  A    between atoms: _127  and  _129
REMARK   58  A    between atoms: _129  and  _130
REMARK   59  A    between atoms: _129  and  _132
REMARK   60  A    between atoms: _132  and  _133
REMARK   61  A    between atoms: _136  and  _138
REMARK   62  A    between atoms: _138  and  _139
REMARK   63  A    between atoms: _138  and  _141
REMARK   64  A    between atoms: _141  and  _142
REMARK   65  A    between atoms: _145  and  _147
REMARK   66  A    between atoms: _147  and  _148
REMARK   67  A    between atoms: _147  and  _150
REMARK   68  A    between atoms: _150  and  _151
REMARK   69  A    between atoms: _154  and  _156
REMARK   70  A    between atoms: _156  and  _157
REMARK   71  A    between atoms: _156  and  _159
REMARK   72  A    between atoms: _159  and  _160
REMARK   73  A    between atoms: _163  and  _165
REMARK   74  A    between atoms: _165  and  _166
REMARK   75  A    between atoms: _165  and  _168
REMARK   76  A    between atoms: _168  and  _169
REMARK   77  A    between atoms: _174  and  _175
REMARK   78  A    between atoms: _177  and  _179
REMARK   79  A    between atoms: _179  and  _180
REMARK   80  A    between atoms: _179  and  _182
REMARK   81  A    between atoms: _182  and  _183
REMARK   82  A    between atoms: _186  and  _188
REMARK   83  A    between atoms: _188  and  _189
REMARK   84  A    between atoms: _191  and  _193
REMARK   85  A    between atoms: _193  and  _194
REMARK   86  A    between atoms: _193  and  _196
REMARK   87  A    between atoms: _196  and  _197
REMARK   88  A    between atoms: _203  and  _205
REMARK   89  A    between atoms: _205  and  _206
REMARK   90  A    between atoms: _205  and  _208
REMARK   91  A    between atoms: _208  and  _209
REMARK   92  A    between atoms: _212  and  _214
REMARK   93  A    between atoms: _214  and  _215
REMARK   94  A    between atoms: _214  and  _217
REMARK   95  A    between atoms: _217  and  _218
REMARK   96  A    between atoms: _218  and  _219
REMARK   97  A    between atoms: _222  and  _224
REMARK   98  A    between atoms: _224  and  _225
REMARK   99  A    between atoms: _224  and  _227
REMARK  100  A    between atoms: _227  and  _228
REMARK  101  A    between atoms: _231  and  _233
REMARK  102  A    between atoms: _233  and  _234
REMARK  103  A    between atoms: _233  and  _236
REMARK  104  A    between atoms: _236  and  _237
REMARK  105  A    between atoms: _240  and  _242
REMARK  106  A    between atoms: _242  and  _243
REMARK  107  A    between atoms: _242  and  _245
REMARK  108  A    between atoms: _245  and  _246
REMARK  109  A    between atoms: _251  and  _253
REMARK  110  A    between atoms: _253  and  _254
REMARK  111  A    between atoms: _253  and  _256
REMARK  112  A    between atoms: _256  and  _257
REMARK  113  A    between atoms: _260  and  _262
REMARK  114  A    between atoms: _262  and  _263
REMARK  115  A    between atoms: _262  and  _265
REMARK  116  A    between atoms: _265  and  _266
REMARK  117  A    between atoms: _271  and  _273
REMARK  118  A    between atoms: _273  and  _274
REMARK  119  A    between atoms: _273  and  _276
REMARK  120  A    between atoms: _276  and  _277
REMARK  121  A    between atoms: _281  and  _282
REMARK  122  A    between atoms: _287  and  _289
REMARK  123  A    between atoms: _289  and  _290
REMARK  124  A    between atoms: _289  and  _292
REMARK  125  A    between atoms: _292  and  _293
REMARK  126  A    between atoms: _296  and  _297
REMARK  127  A    between atoms: _302  and  _304
REMARK  128  A    between atoms: _304  and  _305
REMARK  129  A    between atoms: _304  and  _307
REMARK  130  A    between atoms: _307  and  _308
REMARK  131  A    between atoms: _315  and  _316
REMARK  132  A    between atoms: _321  and  _323
REMARK  133  A    between atoms: _323  and  _324
REMARK  134  A    between atoms: _323  and  _326
REMARK  135  A    between atoms: _326  and  _327
REMARK  136  A    between atoms: _330  and  _332
REMARK  137  A    between atoms: _332  and  _333
REMARK  138  A    between atoms: _332  and  _335
REMARK  139  A    between atoms: _335  and  _336
REMARK  140  A    between atoms: _346  and  _348
REMARK  141  A    between atoms: _348  and  _349
REMARK  142  A    between atoms: _348  and  _351
REMARK  143  A    between atoms: _351  and  _352
REMARK  144  A    between atoms: _356  and  ZN_366
REMARK  145  A    between atoms: _357  and  _359
REMARK  146  A    between atoms: _359  and  _360
REMARK  147  A    between atoms: _359  and  _362
REMARK  148  A    between atoms: _362  and  _363
REMARK                            x       y       z     vdW  Elec       q    Type
REMARK                         _______ _______ _______ _____ _____    ______ ____
ROOT
ATOM      1  CA  ASP A   1      -5.292  17.502  -7.627  0.00  0.00    +0.144 C 
ENDROOT
BRANCH   1   2
ATOM      2  N   ASP A   1      -5.649  16.892  -8.910  0.00  0.00    -0.239 NA
ATOM      3  H   ASP A   1      -6.105  17.472  -9.643  0.00  0.00    +0.142 HD
ENDBRANCH   1   2
BRANCH   1   4
ATOM      4  C   ASP A   1      -6.212  16.998  -6.521  0.00  0.00    +0.225 C 
ATOM      5  O   ASP A   1      -7.338  16.576  -6.792  0.00  0.00    -0.287 OA
ENDBRANCH   1   4
BRANCH   1   6
ATOM      6  CB  ASP A   1      -5.365  19.036  -7.696  0.00  0.00    +0.139 C 
BRANCH   6   7
ATOM      7  CG  ASP A   1      -6.771  19.561  -7.997  0.00  0.00    +0.367 C 
ATOM      8  OD2 ASP A   1      -7.220  20.460  -7.255  0.00  0.00    -0.246 OA
ATOM      9  OD1 ASP A   1      -7.411  19.092  -8.975  0.00  0.00    -0.246 OA
ENDBRANCH   6   7
ENDBRANCH   1   6
TORSDOF 4
REMARK  Name = ../refined-set-2016/4mhy/4mhy_pocket.pdb
REMARK  148 active torsions:
REMARK  status: ('A' for Active; 'I' for Inactive)
REMARK    1  A    between atoms: _1  and  _3
REMARK    2  A    between atoms: _3  and  _4
REMARK    3  A    between atoms: _3  and  _6
REMARK    4  A    between atoms: _6  and  _7
REMARK    5  A    between atoms: _12  and  _14
REMARK    6  A    between atoms: _14  and  _15
REMARK    7  A    between atoms: _14  and  _17
REMARK    8  A    between atoms: _17  and  _18
REMARK    9  A    between atoms: _21  and  _23
REMARK   10  A    between atoms: _23  and  _24
REMARK   11  A    between atoms: _23  and  _26
REMARK   12  A    between atoms: _26  and  _27
REMARK   13  A    between atoms: _30  and  _32
REMARK   14  A    between atoms: _32  and  _33
REMARK   15  A    between atoms: _32  and  _35
REMARK   16  A    between atoms: _35  and  _36
REMARK   17  A    between atoms: _42  and  _44
REMARK   18  A    between atoms: _44  and  _45
REMARK   19  A    between atoms: _44  and  _47
REMARK   20  A    between atoms: _47  and  _48
REMARK   21  A    between atoms: _51  and  _53
REMARK   22  A    between atoms: _53  and  _54
REMARK   23  A    between atoms: _53  and  _56
REMARK   24  A    between atoms: _56  and  _57
REMARK   25  A    between atoms: _57  and  _59
REMARK   26  A    between atoms: _59  and  ZN_366
REMARK   27  A    between atoms: _60  and  _62
REMARK   28  A    between atoms: _62  and  _63
REMARK   29  A    between atoms: _62  and  _65
REMARK   30  A    between atoms: _65  and  _66
REMARK   31  A    between atoms: _68  and  _70
REMARK   32  A    between atoms: _70  and  _71
REMARK   33  A    between atoms: _70  and  _73
REMARK   34  A    between atoms: _73  and  _74
REMARK   35  A    between atoms: _74  and  _75
REMARK   36  A    between atoms: _78  and  _80
REMARK   37  A    between atoms: _80  and  _81
REMARK   38  A    between atoms: _80  and  _83
REMARK   39  A    between atoms: _83  and  _84
REMARK   40  A    between atoms: _84  and  _85
REMARK   41  A    between atoms: _85  and  _87
REMARK   42  A    between atoms: _87  and  ZN_366
REMARK   43  A    between atoms: _88  and  _90
REMARK   44  A    between atoms: _90  and  _91
REMARK   45  A    between atoms: _94  and  _96
REMARK   46  A    between atoms: _96  and  _97
REMARK   47  A    between atoms: _96  and  _99
REMARK   48  A    between atoms: _99  and  _100
REMARK   49  A    between atoms: _110  and  _112
REMARK   50  A    between atoms: _112  and  _113
REMARK   51  A    between atoms: _112  and  _115
REMARK   52  A    between atoms: _115  and  _116
REMARK   53  A    between atoms: _118  and  _120
REMARK   54  A    between atoms: _120  and  _121
REMARK   55  A    between atoms: _120  and  _123
REMARK   56  A    between atoms: _123  and  _124
REMARK   57  A    between atoms: _127  and  _129
REMARK   58  A    between atoms: _129  and  _130
REMARK   59  A    between atoms: _129  and  _132
REMARK   60  A    between atoms: _132  and  _133
REMARK   61  A    between atoms: _136  and  _138
REMARK   62  A    between atoms: _138  and  _139
REMARK   63  A    between atoms: _138  and  _141
REMARK   64  A    between atoms: _141  and  _142
REMARK   65  A    between atoms: _145  and  _147
REMARK   66  A    between atoms: _147  and  _148
REMARK   67  A    between atoms: _147  and  _150
REMARK   68  A    between atoms: _150  and  _151
REMARK   69  A    between atoms: _154  and  _156
REMARK   70  A    between atoms: _156  and  _157
REMARK   71  A    between atoms: _156  and  _159
REMARK   72  A    between atoms: _159  and  _160
REMARK   73  A    between atoms: _163  and  _165
REMARK   74  A    between atoms: _165  and  _166
REMARK   75  A    between atoms: _165  and  _168
REMARK   76  A    between atoms: _168  and  _169
REMARK   77  A    between atoms: _174  and  _175
REMARK   78  A    between atoms: _177  and  _179
REMARK   79  A    between atoms: _179  and  _180
REMARK   80  A    between atoms: _179  and  _182
REMARK   81  A    between atoms: _182  and  _183
REMARK   82  A    between atoms: _186  and  _188
REMARK   83  A    between atoms: _188  and  _189
REMARK   84  A    between atoms: _191  and  _193
REMARK   85  A    between atoms: _193  and  _194
REMARK   86  A    between atoms: _193  and  _196
REMARK   87  A    between atoms: _196  and  _197
REMARK   88  A    between atoms: _203  and  _205
REMARK   89  A    between atoms: _205  and  _206
REMARK   90  A    between atoms: _205  and  _208
REMARK   91  A    between atoms: _208  and  _209
REMARK   92  A    between atoms: _212  and  _214
REMARK   93  A    between atoms: _214  and  _215
REMARK   94  A    between atoms: _214  and  _217
REMARK   95  A    between atoms: _217  and  _218
REMARK   96  A    between atoms: _218  and  _219
REMARK   97  A    between atoms: _222  and  _224
REMARK   98  A    between atoms: _224  and  _225
REMARK   99  A    between atoms: _224  and  _227
REMARK  100  A    between atoms: _227  and  _228
REMARK  101  A    between atoms: _231  and  _233
REMARK  102  A    between atoms: _233  and  _234
REMARK  103  A    between atoms: _233  and  _236
REMARK  104  A    between atoms: _236  and  _237
REMARK  105  A    between atoms: _240  and  _242
REMARK  106  A    between atoms: _242  and  _243
REMARK  107  A    between atoms: _242  and  _245
REMARK  108  A    between atoms: _245  and  _246
REMARK  109  A    between atoms: _251  and  _253
REMARK  110  A    between atoms: _253  and  _254
REMARK  111  A    between atoms: _253  and  _256
REMARK  112  A    between atoms: _256  and  _257
REMARK  113  A    between atoms: _260  and  _262
REMARK  114  A    between atoms: _262  and  _263
REMARK  115  A    between atoms: _262  and  _265
REMARK  116  A    between atoms: _265  and  _266
REMARK  117  A    between atoms: _271  and  _273
REMARK  118  A    between atoms: _273  and  _274
REMARK  119  A    between atoms: _273  and  _276
REMARK  120  A    between atoms: _276  and  _277
REMARK  121  A    between atoms: _281  and  _282
REMARK  122  A    between atoms: _287  and  _289
REMARK  123  A    between atoms: _289  and  _290
REMARK  124  A    between atoms: _289  and  _292
REMARK  125  A    between atoms: _292  and  _293
REMARK  126  A    between atoms: _296  and  _297
REMARK  127  A    between atoms: _302  and  _304
REMARK  128  A    between atoms: _304  and  _305
REMARK  129  A    between atoms: _304  and  _307
REMARK  130  A    between atoms: _307  and  _308
REMARK  131  A    between atoms: _315  and  _316
REMARK  132  A    between atoms: _321  and  _323
REMARK  133  A    between atoms: _323  and  _324
REMARK  134  A    between atoms: _323  and  _326
REMARK  135  A    between atoms: _326  and  _327
REMARK  136  A    between atoms: _330  and  _332
REMARK  137  A    between atoms: _332  and  _333
REMARK  138  A    between atoms: _332  and  _335
REMARK  139  A    between atoms: _335  and  _336
REMARK  140  A    between atoms: _346  and  _348
REMARK  141  A    between atoms: _348  and  _349
REMARK  142  A    between atoms: _348  and  _351
REMARK  143  A    between atoms: _351  and  _352
REMARK  144  A    between atoms: _356  and  ZN_366
REMARK  145  A    between atoms: _357  and  _359
REMARK  146  A    between atoms: _359  and  _360
REMARK  147  A    between atoms: _359  and  _362
REMARK  148  A    between atoms: _362  and  _363
REMARK                            x       y       z     vdW  Elec       q    Type
REMARK                         _______ _______ _______ _____ _____    ______ ____
ROOT
ATOM      1  CA  LEU A   1      -8.197  19.196  -1.725  0.00  0.00    +0.133 C 
ENDROOT
BRANCH   1   2
ATOM      2  N   LEU A   1      -7.866  18.097  -2.622  0.00  0.00    -0.239 NA
ATOM      3  H   LEU A   1      -8.589  17.368  -2.791  0.00  0.00    +0.142 HD
ENDBRANCH   1   2
BRANCH   1   4
ATOM      4  C   LEU A   1      -7.194  19.338  -0.586  0.00  0.00    +0.224 C 
ATOM      5  O   LEU A   1      -6.838  18.347   0.069  0.00  0.00    -0.287 OA
ENDBRANCH   1   4
BRANCH   1   6
ATOM      6  CB  LEU A   1      -9.589  18.939  -1.130  0.00  0.00    +0.025 C 
BRANCH   6   7
ATOM      7  CG  LEU A   1     -10.155  19.911  -0.095  0.00  0.00    +0.002 C 
ATOM      8  CD2 LEU A   1     -11.358  19.280   0.597  0.00  0.00    +0.000 C 
ATOM      9  CD1 LEU A   1     -10.519  21.223  -0.762  0.00  0.00    +0.000 C 
ENDBRANCH   6   7
ENDBRANCH   1   6
TORSDOF 4
REMARK  Name = ../refined-set-2016/4mhy/4mhy_pocket.pdb
REMARK  148 active torsions:
REMARK  status: ('A' for Active; 'I' for Inactive)
REMARK    1  A    between atoms: _1  and  _3
REMARK    2  A    between atoms: _3  and  _4
REMARK    3  A    between atoms: _3  and  _6
REMARK    4  A    between atoms: _6  and  _7
REMARK    5  A    between atoms: _12  and  _14
REMARK    6  A    between atoms: _14  and  _15
REMARK    7  A    between atoms: _14  and  _17
REMARK    8  A    between atoms: _17  and  _18
REMARK    9  A    between atoms: _21  and  _23
REMARK   10  A    between atoms: _23  and  _24
REMARK   11  A    between atoms: _23  and  _26
REMARK   12  A    between atoms: _26  and  _27
REMARK   13  A    between atoms: _30  and  _32
REMARK   14  A    between atoms: _32  and  _33
REMARK   15  A    between atoms: _32  and  _35
REMARK   16  A    between atoms: _35  and  _36
REMARK   17  A    between atoms: _42  and  _44
REMARK   18  A    between atoms: _44  and  _45
REMARK   19  A    between atoms: _44  and  _47
REMARK   20  A    between atoms: _47  and  _48
REMARK   21  A    between atoms: _51  and  _53
REMARK   22  A    between atoms: _53  and  _54
REMARK   23  A    between atoms: _53  and  _56
REMARK   24  A    between atoms: _56  and  _57
REMARK   25  A    between atoms: _57  and  _59
REMARK   26  A    between atoms: _59  and  ZN_366
REMARK   27  A    between atoms: _60  and  _62
REMARK   28  A    between atoms: _62  and  _63
REMARK   29  A    between atoms: _62  and  _65
REMARK   30  A    between atoms: _65  and  _66
REMARK   31  A    between atoms: _68  and  _70
REMARK   32  A    between atoms: _70  and  _71
REMARK   33  A    between atoms: _70  and  _73
REMARK   34  A    between atoms: _73  and  _74
REMARK   35  A    between atoms: _74  and  _75
REMARK   36  A    between atoms: _78  and  _80
REMARK   37  A    between atoms: _80  and  _81
REMARK   38  A    between atoms: _80  and  _83
REMARK   39  A    between atoms: _83  and  _84
REMARK   40  A    between atoms: _84  and  _85
REMARK   41  A    between atoms: _85  and  _87
REMARK   42  A    between atoms: _87  and  ZN_366
REMARK   43  A    between atoms: _88  and  _90
REMARK   44  A    between atoms: _90  and  _91
REMARK   45  A    between atoms: _94  and  _96
REMARK   46  A    between atoms: _96  and  _97
REMARK   47  A    between atoms: _96  and  _99
REMARK   48  A    between atoms: _99  and  _100
REMARK   49  A    between atoms: _110  and  _112
REMARK   50  A    between atoms: _112  and  _113
REMARK   51  A    between atoms: _112  and  _115
REMARK   52  A    between atoms: _115  and  _116
REMARK   53  A    between atoms: _118  and  _120
REMARK   54  A    between atoms: _120  and  _121
REMARK   55  A    between atoms: _120  and  _123
REMARK   56  A    between atoms: _123  and  _124
REMARK   57  A    between atoms: _127  and  _129
REMARK   58  A    between atoms: _129  and  _130
REMARK   59  A    between atoms: _129  and  _132
REMARK   60  A    between atoms: _132  and  _133
REMARK   61  A    between atoms: _136  and  _138
REMARK   62  A    between atoms: _138  and  _139
REMARK   63  A    between atoms: _138  and  _141
REMARK   64  A    between atoms: _141  and  _142
REMARK   65  A    between atoms: _145  and  _147
REMARK   66  A    between atoms: _147  and  _148
REMARK   67  A    between atoms: _147  and  _150
REMARK   68  A    between atoms: _150  and  _151
REMARK   69  A    between atoms: _154  and  _156
REMARK   70  A    between atoms: _156  and  _157
REMARK   71  A    between atoms: _156  and  _159
REMARK   72  A    between atoms: _159  and  _160
REMARK   73  A    between atoms: _163  and  _165
REMARK   74  A    between atoms: _165  and  _166
REMARK   75  A    between atoms: _165  and  _168
REMARK   76  A    between atoms: _168  and  _169
REMARK   77  A    between atoms: _174  and  _175
REMARK   78  A    between atoms: _177  and  _179
REMARK   79  A    between atoms: _179  and  _180
REMARK   80  A    between atoms: _179  and  _182
REMARK   81  A    between atoms: _182  and  _183
REMARK   82  A    between atoms: _186  and  _188
REMARK   83  A    between atoms: _188  and  _189
REMARK   84  A    between atoms: _191  and  _193
REMARK   85  A    between atoms: _193  and  _194
REMARK   86  A    between atoms: _193  and  _196
REMARK   87  A    between atoms: _196  and  _197
REMARK   88  A    between atoms: _203  and  _205
REMARK   89  A    between atoms: _205  and  _206
REMARK   90  A    between atoms: _205  and  _208
REMARK   91  A    between atoms: _208  and  _209
REMARK   92  A    between atoms: _212  and  _214
REMARK   93  A    between atoms: _214  and  _215
REMARK   94  A    between atoms: _214  and  _217
REMARK   95  A    between atoms: _217  and  _218
REMARK   96  A    between atoms: _218  and  _219
REMARK   97  A    between atoms: _222  and  _224
REMARK   98  A    between atoms: _224  and  _225
REMARK   99  A    between atoms: _224  and  _227
REMARK  100  A    between atoms: _227  and  _228
REMARK  101  A    between atoms: _231  and  _233
REMARK  102  A    between atoms: _233  and  _234
REMARK  103  A    between atoms: _233  and  _236
REMARK  104  A    between atoms: _236  and  _237
REMARK  105  A    between atoms: _240  and  _242
REMARK  106  A    between atoms: _242  and  _243
REMARK  107  A    between atoms: _242  and  _245
REMARK  108  A    between atoms: _245  and  _246
REMARK  109  A    between atoms: _251  and  _253
REMARK  110  A    between atoms: _253  and  _254
REMARK  111  A    between atoms: _253  and  _256
REMARK  112  A    between atoms: _256  and  _257
REMARK  113  A    between atoms: _260  and  _262
REMARK  114  A    between atoms: _262  and  _263
REMARK  115  A    between atoms: _262  and  _265
REMARK  116  A    between atoms: _265  and  _266
REMARK  117  A    between atoms: _271  and  _273
REMARK  118  A    between atoms: _273  and  _274
REMARK  119  A    between atoms: _273  and  _276
REMARK  120  A    between atoms: _276  and  _277
REMARK  121  A    between atoms: _281  and  _282
REMARK  122  A    between atoms: _287  and  _289
REMARK  123  A    between atoms: _289  and  _290
REMARK  124  A    between atoms: _289  and  _292
REMARK  125  A    between atoms: _292  and  _293
REMARK  126  A    between atoms: _296  and  _297
REMARK  127  A    between atoms: _302  and  _304
REMARK  128  A    between atoms: _304  and  _305
REMARK  129  A    between atoms: _304  and  _307
REMARK  130  A    between atoms: _307  and  _308
REMARK  131  A    between atoms: _315  and  _316
REMARK  132  A    between atoms: _321  and  _323
REMARK  133  A    between atoms: _323  and  _324
REMARK  134  A    between atoms: _323  and  _326
REMARK  135  A    between atoms: _326  and  _327
REMARK  136  A    between atoms: _330  and  _332
REMARK  137  A    between atoms: _332  and  _333
REMARK  138  A    between atoms: _332  and  _335
REMARK  139  A    between atoms: _335  and  _336
REMARK  140  A    between atoms: _346  and  _348
REMARK  141  A    between atoms: _348  and  _349
REMARK  142  A    between atoms: _348  and  _351
REMARK  143  A    between atoms: _351  and  _352
REMARK  144  A    between atoms: _356  and  ZN_366
REMARK  145  A    between atoms: _357  and  _359
REMARK  146  A    between atoms: _359  and  _360
REMARK  147  A    between atoms: _359  and  _362
REMARK  148  A    between atoms: _362  and  _363
REMARK                            x       y       z     vdW  Elec       q    Type
REMARK                         _______ _______ _______ _____ _____    ______ ____
ROOT
ATOM      1  CB  PHE A   1      -7.789  15.364   2.249  0.00  0.00    +0.051 C 
ENDROOT
BRANCH   1   2
ATOM      2  CG  PHE A   1      -8.992  15.186   1.358  0.00  0.00    -0.020 A 
ATOM      3  CD2 PHE A   1     -10.199  14.723   1.879  0.00  0.00    -0.004 A 
ATOM      4  CE2 PHE A   1     -11.308  14.576   1.062  0.00  0.00    -0.000 A 
ATOM      5  CZ  PHE A   1     -11.229  14.873  -0.286  0.00  0.00    -0.000 A 
ATOM      6  CE1 PHE A   1     -10.038  15.331  -0.824  0.00  0.00    -0.000 A 
ATOM      7  CD1 PHE A   1      -8.922  15.485  -0.002  0.00  0.00    -0.004 A 
ENDBRANCH   1   2
BRANCH   1   8
ATOM      8  CA  PHE A   1      -7.063  14.061   2.603  0.00  0.00    +0.137 C 
BRANCH   8   9
ATOM      9  N   PHE A   1      -5.877  14.374   3.396  0.00  0.00    -0.239 NA
ATOM     10  H   PHE A   1      -5.160  15.006   2.986  0.00  0.00    +0.142 HD
ENDBRANCH   8   9
BRANCH   8  11
ATOM     11  C   PHE A   1      -6.663  13.305   1.342  0.00  0.00    +0.224 C 
ATOM     12  O   PHE A   1      -5.928  13.812   0.501  0.00  0.00    -0.287 OA
ENDBRANCH   8  11
ENDBRANCH   1   8
TORSDOF 4
REMARK  Name = ../refined-set-2016/4mhy/4mhy_pocket.pdb
REMARK  148 active torsions:
REMARK  status: ('A' for Active; 'I' for Inactive)
REMARK    1  A    between atoms: _1  and  _3
REMARK    2  A    between atoms: _3  and  _4
REMARK    3  A    between atoms: _3  and  _6
REMARK    4  A    between atoms: _6  and  _7
REMARK    5  A    between atoms: _12  and  _14
REMARK    6  A    between atoms: _14  and  _15
REMARK    7  A    between atoms: _14  and  _17
REMARK    8  A    between atoms: _17  and  _18
REMARK    9  A    between atoms: _21  and  _23
REMARK   10  A    between atoms: _23  and  _24
REMARK   11  A    between atoms: _23  and  _26
REMARK   12  A    between atoms: _26  and  _27
REMARK   13  A    between atoms: _30  and  _32
REMARK   14  A    between atoms: _32  and  _33
REMARK   15  A    between atoms: _32  and  _35
REMARK   16  A    between atoms: _35  and  _36
REMARK   17  A    between atoms: _42  and  _44
REMARK   18  A    between atoms: _44  and  _45
REMARK   19  A    between atoms: _44  and  _47
REMARK   20  A    between atoms: _47  and  _48
REMARK   21  A    between atoms: _51  and  _53
REMARK   22  A    between atoms: _53  and  _54
REMARK   23  A    between atoms: _53  and  _56
REMARK   24  A    between atoms: _56  and  _57
REMARK   25  A    between atoms: _57  and  _59
REMARK   26  A    between atoms: _59  and  ZN_366
REMARK   27  A    between atoms: _60  and  _62
REMARK   28  A    between atoms: _62  and  _63
REMARK   29  A    between atoms: _62  and  _65
REMARK   30  A    between atoms: _65  and  _66
REMARK   31  A    between atoms: _68  and  _70
REMARK   32  A    between atoms: _70  and  _71
REMARK   33  A    between atoms: _70  and  _73
REMARK   34  A    between atoms: _73  and  _74
REMARK   35  A    between atoms: _74  and  _75
REMARK   36  A    between atoms: _78  and  _80
REMARK   37  A    between atoms: _80  and  _81
REMARK   38  A    between atoms: _80  and  _83
REMARK   39  A    between atoms: _83  and  _84
REMARK   40  A    between atoms: _84  and  _85
REMARK   41  A    between atoms: _85  and  _87
REMARK   42  A    between atoms: _87  and  ZN_366
REMARK   43  A    between atoms: _88  and  _90
REMARK   44  A    between atoms: _90  and  _91
REMARK   45  A    between atoms: _94  and  _96
REMARK   46  A    between atoms: _96  and  _97
REMARK   47  A    between atoms: _96  and  _99
REMARK   48  A    between atoms: _99  and  _100
REMARK   49  A    between atoms: _110  and  _112
REMARK   50  A    between atoms: _112  and  _113
REMARK   51  A    between atoms: _112  and  _115
REMARK   52  A    between atoms: _115  and  _116
REMARK   53  A    between atoms: _118  and  _120
REMARK   54  A    between atoms: _120  and  _121
REMARK   55  A    between atoms: _120  and  _123
REMARK   56  A    between atoms: _123  and  _124
REMARK   57  A    between atoms: _127  and  _129
REMARK   58  A    between atoms: _129  and  _130
REMARK   59  A    between atoms: _129  and  _132
REMARK   60  A    between atoms: _132  and  _133
REMARK   61  A    between atoms: _136  and  _138
REMARK   62  A    between atoms: _138  and  _139
REMARK   63  A    between atoms: _138  and  _141
REMARK   64  A    between atoms: _141  and  _142
REMARK   65  A    between atoms: _145  and  _147
REMARK   66  A    between atoms: _147  and  _148
REMARK   67  A    between atoms: _147  and  _150
REMARK   68  A    between atoms: _150  and  _151
REMARK   69  A    between atoms: _154  and  _156
REMARK   70  A    between atoms: _156  and  _157
REMARK   71  A    between atoms: _156  and  _159
REMARK   72  A    between atoms: _159  and  _160
REMARK   73  A    between atoms: _163  and  _165
REMARK   74  A    between atoms: _165  and  _166
REMARK   75  A    between atoms: _165  and  _168
REMARK   76  A    between atoms: _168  and  _169
REMARK   77  A    between atoms: _174  and  _175
REMARK   78  A    between atoms: _177  and  _179
REMARK   79  A    between atoms: _179  and  _180
REMARK   80  A    between atoms: _179  and  _182
REMARK   81  A    between atoms: _182  and  _183
REMARK   82  A    between atoms: _186  and  _188
REMARK   83  A    between atoms: _188  and  _189
REMARK   84  A    between atoms: _191  and  _193
REMARK   85  A    between atoms: _193  and  _194
REMARK   86  A    between atoms: _193  and  _196
REMARK   87  A    between atoms: _196  and  _197
REMARK   88  A    between atoms: _203  and  _205
REMARK   89  A    between atoms: _205  and  _206
REMARK   90  A    between atoms: _205  and  _208
REMARK   91  A    between atoms: _208  and  _209
REMARK   92  A    between atoms: _212  and  _214
REMARK   93  A    between atoms: _214  and  _215
REMARK   94  A    between atoms: _214  and  _217
REMARK   95  A    between atoms: _217  and  _218
REMARK   96  A    between atoms: _218  and  _219
REMARK   97  A    between atoms: _222  and  _224
REMARK   98  A    between atoms: _224  and  _225
REMARK   99  A    between atoms: _224  and  _227
REMARK  100  A    between atoms: _227  and  _228
REMARK  101  A    between atoms: _231  and  _233
REMARK  102  A    between atoms: _233  and  _234
REMARK  103  A    between atoms: _233  and  _236
REMARK  104  A    between atoms: _236  and  _237
REMARK  105  A    between atoms: _240  and  _242
REMARK  106  A    between atoms: _242  and  _243
REMARK  107  A    between atoms: _242  and  _245
REMARK  108  A    between atoms: _245  and  _246
REMARK  109  A    between atoms: _251  and  _253
REMARK  110  A    between atoms: _253  and  _254
REMARK  111  A    between atoms: _253  and  _256
REMARK  112  A    between atoms: _256  and  _257
REMARK  113  A    between atoms: _260  and  _262
REMARK  114  A    between atoms: _262  and  _263
REMARK  115  A    between atoms: _262  and  _265
REMARK  116  A    between atoms: _265  and  _266
REMARK  117  A    between atoms: _271  and  _273
REMARK  118  A    between atoms: _273  and  _274
REMARK  119  A    between atoms: _273  and  _276
REMARK  120  A    between atoms: _276  and  _277
REMARK  121  A    between atoms: _281  and  _282
REMARK  122  A    between atoms: _287  and  _289
REMARK  123  A    between atoms: _289  and  _290
REMARK  124  A    between atoms: _289  and  _292
REMARK  125  A    between atoms: _292  and  _293
REMARK  126  A    between atoms: _296  and  _297
REMARK  127  A    between atoms: _302  and  _304
REMARK  128  A    between atoms: _304  and  _305
REMARK  129  A    between atoms: _304  and  _307
REMARK  130  A    between atoms: _307  and  _308
REMARK  131  A    between atoms: _315  and  _316
REMARK  132  A    between atoms: _321  and  _323
REMARK  133  A    between atoms: _323  and  _324
REMARK  134  A    between atoms: _323  and  _326
REMARK  135  A    between atoms: _326  and  _327
REMARK  136  A    between atoms: _330  and  _332
REMARK  137  A    between atoms: _332  and  _333
REMARK  138  A    between atoms: _332  and  _335
REMARK  139  A    between atoms: _335  and  _336
REMARK  140  A    between atoms: _346  and  _348
REMARK  141  A    between atoms: _348  and  _349
REMARK  142  A    between atoms: _348  and  _351
REMARK  143  A    between atoms: _351  and  _352
REMARK  144  A    between atoms: _356  and  ZN_366
REMARK  145  A    between atoms: _357  and  _359
REMARK  146  A    between atoms: _359  and  _360
REMARK  147  A    between atoms: _359  and  _362
REMARK  148  A    between atoms: _362  and  _363
REMARK                            x       y       z     vdW  Elec       q    Type
REMARK                         _______ _______ _______ _____ _____    ______ ____
ROOT
ATOM      1 ZN   UNK A   2     -13.555  17.897  -4.108  0.00  0.00    +0.000 Zn
ENDROOT
BRANCH   1   2
ATOM      2  N   UNK A   2     -14.134  18.605  -2.299  0.00  0.00    +0.000 N 
ATOM      3  C   UNK A   2     -14.331  17.725  -1.299  0.00  0.00    +0.000 A 
ATOM      4  C   UNK A   2     -14.788  18.440  -0.194  0.00  0.00    +0.000 A 
ATOM      5  N   UNK A   2     -14.839  19.734  -0.569  0.00  0.00    +0.000 NA
ATOM      6  C   UNK A   2     -14.455  19.835  -1.858  0.00  0.00    +0.000 A 
BRANCH   4   7
ATOM      7  C   UNK A   2     -15.139  17.968   1.199  0.00  0.00    +0.000 C 
BRANCH   7   8
ATOM      8  C   UNK A   2     -14.607  16.556   1.507  0.00  0.00    +0.000 C 
BRANCH   8   9
ATOM      9  N   UNK A   2     -15.423  15.532   0.827  0.00  0.00    +0.000 N 
ATOM     10  C   GLU A   1     -16.668  15.222   1.186  0.00  0.00    +0.000 C 
ATOM     11  O   GLU A   1     -17.240  15.736   2.148  0.00  0.00    +0.000 OA
ATOM     12  H   UNK A   2     -15.003  15.024   0.023  0.00  0.00    +0.000 HD
BRANCH  10  13
ATOM     13  CA  GLU A   1     -17.356  14.196   0.321  0.00  0.00    +0.000 C 
BRANCH  13  14
ATOM     14  N   GLU A   1     -17.841  13.034   1.071  0.00  0.00    +0.000 NA
ATOM     15  H   GLU A   1     -18.822  12.716   0.937  0.00  0.00    +0.000 HD
ENDBRANCH  13  14
BRANCH  13  16
ATOM     16  CB  GLU A   1     -18.504  14.841  -0.445  0.00  0.00    +0.000 C 
BRANCH  16  17
ATOM     17  CG  GLU A   1     -18.071  15.968  -1.344  0.00  0.00    +0.000 A 
ATOM     18  CD2 GLU A   1     -18.216  17.410  -1.086  0.00  0.00    +0.000 A 
ATOM     19  CE3 GLU A   1     -18.755  18.180  -0.045  0.00  0.00    +0.000 A 
ATOM     20  CZ3 GLU A   1     -18.730  19.569  -0.158  0.00  0.00    +0.000 A 
ATOM     21  CH2 GLU A   1     -18.190  20.201  -1.287  0.00  0.00    +0.000 A 
ATOM     22  CZ2 GLU A   1     -17.650  19.478  -2.358  0.00  0.00    +0.000 A 
ATOM     23  CE2 GLU A   1     -17.672  18.088  -2.261  0.00  0.00    +0.000 A 
ATOM     24  NE1 GLU A   1     -17.231  17.120  -3.117  0.00  0.00    +0.000 N 
ATOM     25  HE1 GLU A   1     -16.784  17.303  -4.038  0.00  0.00    +0.000 HD
ATOM     26  CD1 GLU A   1     -17.459  15.874  -2.594  0.00  0.00    +0.000 A 
ENDBRANCH  16  17
ENDBRANCH  13  16
ENDBRANCH  10  13
ENDBRANCH   8   9
BRANCH   8  27
ATOM     27  C   UNK A   2     -14.403  16.301   2.976  0.00  0.00    +0.000 C 
ATOM     28  O   UNK A   2     -14.118  17.218   3.752  0.00  0.00    +0.000 OA
ENDBRANCH   8  27
ENDBRANCH   7   8
ENDBRANCH   4   7
ENDBRANCH   1   2
BRANCH   1  29
ATOM     29  O   UNK A   2     -11.811  18.451  -4.562  0.00  0.00    +0.000 OA
BRANCH  29  30
ATOM     30  C   UNK A   2     -11.506  19.663  -4.611  0.00  0.00    +0.000 C 
ATOM     31  O   UNK A   2     -12.331  20.557  -4.321  0.00  0.00    +0.000 OA
BRANCH  30  32
ATOM     32  C   UNK A   2     -10.098  20.033  -5.054  0.00  0.00    +0.000 C 
BRANCH  32  33
ATOM     33  C   UNK A   2      -9.738  21.498  -4.830  0.00  0.00    +0.000 C 
BRANCH  33  34
ATOM     34  C   UNK A   2     -10.300  22.487  -5.866  0.00  0.00    +0.000 C 
BRANCH  34  35
ATOM     35  C   UNK A   2      -9.951  23.918  -5.448  0.00  0.00    +0.000 C 
ATOM     36  N   SER A   3     -10.799  24.493  -4.600  0.00  0.00    +0.000 N 
ATOM     37  H   SER A   3     -11.693  24.011  -4.378  0.00  0.00    +0.000 HD
ATOM     38  O   UNK A   2      -8.939  24.483  -5.882  0.00  0.00    +0.000 OA
BRANCH  36  39
ATOM     39  CA  SER A   3     -10.516  25.776  -3.973  0.00  0.00    +0.000 C 
ATOM     40  CB  SER A   3     -11.778  26.331  -3.331  0.00  0.00    +0.000 C 
BRANCH  39  41
ATOM     41  C   SER A   3      -9.436  25.619  -2.907  0.00  0.00    +0.000 C 
ATOM     42  O   SER A   3      -9.354  24.585  -2.240  0.00  0.00    +0.000 OA
ENDBRANCH  39  41
ENDBRANCH  36  39
ENDBRANCH  34  35
BRANCH  34  43
ATOM     43  N   UNK A   2      -9.835  22.153  -7.213  0.00  0.00    +0.000 N 
ATOM     44  H   UNK A   2      -8.979  21.573  -7.326  0.00  0.00    +0.000 HD
ATOM     45  C   GLU A   1     -10.482  22.575  -8.298  0.00  0.00    +0.000 C 
ATOM     46  O   GLU A   1     -11.403  23.403  -8.257  0.00  0.00    +0.000 OA
BRANCH  45  47
ATOM     47  CA  GLU A   1     -10.029  21.995  -9.636  0.00  0.00    +0.000 C 
BRANCH  47  48
ATOM     48  N   GLU A   1      -8.573  21.908  -9.687  0.00  0.00    +0.000 NA
ATOM     49  H   GLU A   1      -8.109  20.980  -9.755  0.00  0.00    +0.000 HD
ENDBRANCH  47  48
BRANCH  47  50
ATOM     50  CB  GLU A   1     -10.648  20.614  -9.878  0.00  0.00    +0.000 C 
BRANCH  50  51
ATOM     51  CG  GLU A   1     -12.173  20.590 -10.000  0.00  0.00    +0.000 C 
BRANCH  51  52
ATOM     52  CD  GLU A   1     -12.916  20.515  -8.682  0.00  0.00    +0.000 C 
ATOM     53  OE2 GLU A   1     -12.320  20.159  -7.646  0.00  0.00    +0.000 OA
ATOM     54  OE1 GLU A   1     -14.132  20.799  -8.697  0.00  0.00    +0.000 OA
ENDBRANCH  51  52
ENDBRANCH  50  51
ENDBRANCH  47  50
ENDBRANCH  45  47
ENDBRANCH  34  43
ENDBRANCH  33  34
ENDBRANCH  32  33
ENDBRANCH  30  32
ENDBRANCH  29  30
ENDBRANCH   1  29
BRANCH   1  55
ATOM     55  O   UNK A   2     -13.653  15.928  -3.732  0.00  0.00    +0.000 OA
BRANCH  55  56
ATOM     56  C   UNK A   2     -13.241  15.229  -4.696  0.00  0.00    +0.000 C 
ATOM     57  O   UNK A   2     -12.997  15.718  -5.821  0.00  0.00    +0.000 OA
BRANCH  56  58
ATOM     58  C   UNK A   2     -13.086  13.734  -4.433  0.00  0.00    +0.000 C 
BRANCH  58  59
ATOM     59  C   UNK A   2     -12.471  12.950  -5.600  0.00  0.00    +0.000 C 
BRANCH  59  61
ATOM     60  C   GLU A   1     -13.329  10.654  -5.792  0.00  0.00    +0.000 C 
ATOM     61  N   UNK A   2     -12.511  11.536  -5.225  0.00  0.00    +0.000 N 
ATOM     62  H   UNK A   2     -11.868  11.204  -4.478  0.00  0.00    +0.000 HD
ATOM     63  O   GLU A   1     -13.874  10.840  -6.874  0.00  0.00    +0.000 OA
BRANCH  60  64
ATOM     64  CA  GLU A   1     -13.567   9.363  -5.008  0.00  0.00    +0.000 C 
BRANCH  64  65
ATOM     65  N   GLU A   1     -12.539   9.154  -3.971  0.00  0.00    +0.000 NA
ATOM     66  H   GLU A   1     -12.746   9.413  -2.985  0.00  0.00    +0.000 HD
ENDBRANCH  64  65
BRANCH  64  67
ATOM     67  CB  GLU A   1     -14.994   9.436  -4.422  0.00  0.00    +0.000 C 
ATOM     68  CG2 GLU A   1     -15.354   8.185  -3.608  0.00  0.00    +0.000 C 
BRANCH  67  69
ATOM     69  OG1 GLU A   1     -15.121  10.625  -3.617  0.00  0.00    +0.000 OA
ATOM     70  HG1 GLU A   1     -14.461  10.595  -2.879  0.00  0.00    +0.000 HD
ENDBRANCH  67  69
ENDBRANCH  64  67
ENDBRANCH  60  64
ENDBRANCH  59  61
BRANCH  59  71
ATOM     71  C   UNK A   2     -11.018  13.394  -5.872  0.00  0.00    +0.000 C 
ATOM     72  O   UNK A   2     -10.425  14.099  -5.054  0.00  0.00    +0.000 OA
ATOM     73  N   SER A   3     -10.405  12.986  -6.990  0.00  0.00    +0.000 N 
ATOM     74  H   SER A   3      -9.442  13.341  -7.156  0.00  0.00    +0.000 HD
BRANCH  73  75
ATOM     75  CA  SER A   3     -10.964  12.087  -7.999  0.00  0.00    +0.000 C 
BRANCH  75  76
ATOM     76  CB  SER A   3      -9.950  11.003  -8.359  0.00  0.00    +0.000 C 
ATOM     77  OG  SER A   3      -9.662  10.763  -9.534  0.00  0.00    +0.000 OA
ENDBRANCH  75  76
BRANCH  75  78
ATOM     78  C   SER A   3     -11.399  12.876  -9.228  0.00  0.00    +0.000 C 
BRANCH  78  79
ATOM     79  O   SER A   3     -12.607  13.547  -8.931  0.00  0.00    +0.000 OA
ATOM     80  H   SER A   3     -12.900  14.064  -9.723  0.00  0.00    +0.000 HD
ENDBRANCH  78  79
ENDBRANCH  75  78
ENDBRANCH  73  75
ENDBRANCH  59  71
ENDBRANCH  58  59
ENDBRANCH  56  58
ENDBRANCH  55  56
ENDBRANCH   1  55
TORSDOF 37
REMARK  Name = ../refined-set-2016/4mhy/4mhy_pocket.pdb
REMARK  148 active torsions:
REMARK  status: ('A' for Active; 'I' for Inactive)
REMARK    1  A    between atoms: _1  and  _3
REMARK    2  A    between atoms: _3  and  _4
REMARK    3  A    between atoms: _3  and  _6
REMARK    4  A    between atoms: _6  and  _7
REMARK    5  A    between atoms: _12  and  _14
REMARK    6  A    between atoms: _14  and  _15
REMARK    7  A    between atoms: _14  and  _17
REMARK    8  A    between atoms: _17  and  _18
REMARK    9  A    between atoms: _21  and  _23
REMARK   10  A    between atoms: _23  and  _24
REMARK   11  A    between atoms: _23  and  _26
REMARK   12  A    between atoms: _26  and  _27
REMARK   13  A    between atoms: _30  and  _32
REMARK   14  A    between atoms: _32  and  _33
REMARK   15  A    between atoms: _32  and  _35
REMARK   16  A    between atoms: _35  and  _36
REMARK   17  A    between atoms: _42  and  _44
REMARK   18  A    between atoms: _44  and  _45
REMARK   19  A    between atoms: _44  and  _47
REMARK   20  A    between atoms: _47  and  _48
REMARK   21  A    between atoms: _51  and  _53
REMARK   22  A    between atoms: _53  and  _54
REMARK   23  A    between atoms: _53  and  _56
REMARK   24  A    between atoms: _56  and  _57
REMARK   25  A    between atoms: _57  and  _59
REMARK   26  A    between atoms: _59  and  ZN_366
REMARK   27  A    between atoms: _60  and  _62
REMARK   28  A    between atoms: _62  and  _63
REMARK   29  A    between atoms: _62  and  _65
REMARK   30  A    between atoms: _65  and  _66
REMARK   31  A    between atoms: _68  and  _70
REMARK   32  A    between atoms: _70  and  _71
REMARK   33  A    between atoms: _70  and  _73
REMARK   34  A    between atoms: _73  and  _74
REMARK   35  A    between atoms: _74  and  _75
REMARK   36  A    between atoms: _78  and  _80
REMARK   37  A    between atoms: _80  and  _81
REMARK   38  A    between atoms: _80  and  _83
REMARK   39  A    between atoms: _83  and  _84
REMARK   40  A    between atoms: _84  and  _85
REMARK   41  A    between atoms: _85  and  _87
REMARK   42  A    between atoms: _87  and  ZN_366
REMARK   43  A    between atoms: _88  and  _90
REMARK   44  A    between atoms: _90  and  _91
REMARK   45  A    between atoms: _94  and  _96
REMARK   46  A    between atoms: _96  and  _97
REMARK   47  A    between atoms: _96  and  _99
REMARK   48  A    between atoms: _99  and  _100
REMARK   49  A    between atoms: _110  and  _112
REMARK   50  A    between atoms: _112  and  _113
REMARK   51  A    between atoms: _112  and  _115
REMARK   52  A    between atoms: _115  and  _116
REMARK   53  A    between atoms: _118  and  _120
REMARK   54  A    between atoms: _120  and  _121
REMARK   55  A    between atoms: _120  and  _123
REMARK   56  A    between atoms: _123  and  _124
REMARK   57  A    between atoms: _127  and  _129
REMARK   58  A    between atoms: _129  and  _130
REMARK   59  A    between atoms: _129  and  _132
REMARK   60  A    between atoms: _132  and  _133
REMARK   61  A    between atoms: _136  and  _138
REMARK   62  A    between atoms: _138  and  _139
REMARK   63  A    between atoms: _138  and  _141
REMARK   64  A    between atoms: _141  and  _142
REMARK   65  A    between atoms: _145  and  _147
REMARK   66  A    between atoms: _147  and  _148
REMARK   67  A    between atoms: _147  and  _150
REMARK   68  A    between atoms: _150  and  _151
REMARK   69  A    between atoms: _154  and  _156
REMARK   70  A    between atoms: _156  and  _157
REMARK   71  A    between atoms: _156  and  _159
REMARK   72  A    between atoms: _159  and  _160
REMARK   73  A    between atoms: _163  and  _165
REMARK   74  A    between atoms: _165  and  _166
REMARK   75  A    between atoms: _165  and  _168
REMARK   76  A    between atoms: _168  and  _169
REMARK   77  A    between atoms: _174  and  _175
REMARK   78  A    between atoms: _177  and  _179
REMARK   79  A    between atoms: _179  and  _180
REMARK   80  A    between atoms: _179  and  _182
REMARK   81  A    between atoms: _182  and  _183
REMARK   82  A    between atoms: _186  and  _188
REMARK   83  A    between atoms: _188  and  _189
REMARK   84  A    between atoms: _191  and  _193
REMARK   85  A    between atoms: _193  and  _194
REMARK   86  A    between atoms: _193  and  _196
REMARK   87  A    between atoms: _196  and  _197
REMARK   88  A    between atoms: _203  and  _205
REMARK   89  A    between atoms: _205  and  _206
REMARK   90  A    between atoms: _205  and  _208
REMARK   91  A    between atoms: _208  and  _209
REMARK   92  A    between atoms: _212  and  _214
REMARK   93  A    between atoms: _214  and  _215
REMARK   94  A    between atoms: _214  and  _217
REMARK   95  A    between atoms: _217  and  _218
REMARK   96  A    between atoms: _218  and  _219
REMARK   97  A    between atoms: _222  and  _224
REMARK   98  A    between atoms: _224  and  _225
REMARK   99  A    between atoms: _224  and  _227
REMARK  100  A    between atoms: _227  and  _228
REMARK  101  A    between atoms: _231  and  _233
REMARK  102  A    between atoms: _233  and  _234
REMARK  103  A    between atoms: _233  and  _236
REMARK  104  A    between atoms: _236  and  _237
REMARK  105  A    between atoms: _240  and  _242
REMARK  106  A    between atoms: _242  and  _243
REMARK  107  A    between atoms: _242  and  _245
REMARK  108  A    between atoms: _245  and  _246
REMARK  109  A    between atoms: _251  and  _253
REMARK  110  A    between atoms: _253  and  _254
REMARK  111  A    between atoms: _253  and  _256
REMARK  112  A    between atoms: _256  and  _257
REMARK  113  A    between atoms: _260  and  _262
REMARK  114  A    between atoms: _262  and  _263
REMARK  115  A    between atoms: _262  and  _265
REMARK  116  A    between atoms: _265  and  _266
REMARK  117  A    between atoms: _271  and  _273
REMARK  118  A    between atoms: _273  and  _274
REMARK  119  A    between atoms: _273  and  _276
REMARK  120  A    between atoms: _276  and  _277
REMARK  121  A    between atoms: _281  and  _282
REMARK  122  A    between atoms: _287  and  _289
REMARK  123  A    between atoms: _289  and  _290
REMARK  124  A    between atoms: _289  and  _292
REMARK  125  A    between atoms: _292  and  _293
REMARK  126  A    between atoms: _296  and  _297
REMARK  127  A    between atoms: _302  and  _304
REMARK  128  A    between atoms: _304  and  _305
REMARK  129  A    between atoms: _304  and  _307
REMARK  130  A    between atoms: _307  and  _308
REMARK  131  A    between atoms: _315  and  _316
REMARK  132  A    between atoms: _321  and  _323
REMARK  133  A    between atoms: _323  and  _324
REMARK  134  A    between atoms: _323  and  _326
REMARK  135  A    between atoms: _326  and  _327
REMARK  136  A    between atoms: _330  and  _332
REMARK  137  A    between atoms: _332  and  _333
REMARK  138  A    between atoms: _332  and  _335
REMARK  139  A    between atoms: _335  and  _336
REMARK  140  A    between atoms: _346  and  _348
REMARK  141  A    between atoms: _348  and  _349
REMARK  142  A    between atoms: _348  and  _351
REMARK  143  A    between atoms: _351  and  _352
REMARK  144  A    between atoms: _356  and  ZN_366
REMARK  145  A    between atoms: _357  and  _359
REMARK  146  A    between atoms: _359  and  _360
REMARK  147  A    between atoms: _359  and  _362
REMARK  148  A    between atoms: _362  and  _363
REMARK                            x       y       z     vdW  Elec       q    Type
REMARK                         _______ _______ _______ _____ _____    ______ ____
ROOT
ATOM      1  CG  TRP A   1     -16.318  26.597  -4.848  0.00  0.00    -0.002 A 
ATOM      2  CD1 TRP A   1     -17.273  27.198  -5.666  0.00  0.00    +0.068 A 
ATOM      3  NE1 TRP A   1     -17.286  26.620  -6.911  0.00  0.00    -0.352 N 
ATOM      4  CE2 TRP A   1     -16.378  25.621  -6.986  0.00  0.00    +0.056 A 
ATOM      5  CZ2 TRP A   1     -16.044  24.766  -8.033  0.00  0.00    +0.017 A 
ATOM      6  CH2 TRP A   1     -15.041  23.825  -7.788  0.00  0.00    +0.001 A 
ATOM      7  CZ3 TRP A   1     -14.399  23.734  -6.545  0.00  0.00    +0.000 A 
ATOM      8  CE3 TRP A   1     -14.725  24.591  -5.481  0.00  0.00    +0.001 A 
ATOM      9  HE1 TRP A   1     -17.910  26.911  -7.691  0.00  0.00    +0.166 HD
ATOM     10  CD2 TRP A   1     -15.715  25.544  -5.679  0.00  0.00    +0.013 A 
ENDROOT
BRANCH   1  11
ATOM     11  CB  TRP A   1     -16.004  26.922  -3.407  0.00  0.00    +0.053 C 
BRANCH  11  12
ATOM     12  CA  TRP A   1     -15.026  28.075  -3.185  0.00  0.00    +0.137 C 
BRANCH  12  13
ATOM     13  N   TRP A   1     -14.699  28.154  -1.760  0.00  0.00    -0.239 NA
ATOM     14  H   TRP A   1     -14.983  27.367  -1.143  0.00  0.00    +0.142 HD
ENDBRANCH  12  13
BRANCH  12  15
ATOM     15  C   TRP A   1     -15.605  29.363  -3.703  0.00  0.00    +0.224 C 
ATOM     16  O   TRP A   1     -16.550  29.905  -3.125  0.00  0.00    -0.287 OA
ENDBRANCH  12  15
ENDBRANCH  11  12
ENDBRANCH   1  11
TORSDOF 4
REMARK  Name = ../refined-set-2016/4mhy/4mhy_pocket.pdb
REMARK  148 active torsions:
REMARK  status: ('A' for Active; 'I' for Inactive)
REMARK    1  A    between atoms: _1  and  _3
REMARK    2  A    between atoms: _3  and  _4
REMARK    3  A    between atoms: _3  and  _6
REMARK    4  A    between atoms: _6  and  _7
REMARK    5  A    between atoms: _12  and  _14
REMARK    6  A    between atoms: _14  and  _15
REMARK    7  A    between atoms: _14  and  _17
REMARK    8  A    between atoms: _17  and  _18
REMARK    9  A    between atoms: _21  and  _23
REMARK   10  A    between atoms: _23  and  _24
REMARK   11  A    between atoms: _23  and  _26
REMARK   12  A    between atoms: _26  and  _27
REMARK   13  A    between atoms: _30  and  _32
REMARK   14  A    between atoms: _32  and  _33
REMARK   15  A    between atoms: _32  and  _35
REMARK   16  A    between atoms: _35  and  _36
REMARK   17  A    between atoms: _42  and  _44
REMARK   18  A    between atoms: _44  and  _45
REMARK   19  A    between atoms: _44  and  _47
REMARK   20  A    between atoms: _47  and  _48
REMARK   21  A    between atoms: _51  and  _53
REMARK   22  A    between atoms: _53  and  _54
REMARK   23  A    between atoms: _53  and  _56
REMARK   24  A    between atoms: _56  and  _57
REMARK   25  A    between atoms: _57  and  _59
REMARK   26  A    between atoms: _59  and  ZN_366
REMARK   27  A    between atoms: _60  and  _62
REMARK   28  A    between atoms: _62  and  _63
REMARK   29  A    between atoms: _62  and  _65
REMARK   30  A    between atoms: _65  and  _66
REMARK   31  A    between atoms: _68  and  _70
REMARK   32  A    between atoms: _70  and  _71
REMARK   33  A    between atoms: _70  and  _73
REMARK   34  A    between atoms: _73  and  _74
REMARK   35  A    between atoms: _74  and  _75
REMARK   36  A    between atoms: _78  and  _80
REMARK   37  A    between atoms: _80  and  _81
REMARK   38  A    between atoms: _80  and  _83
REMARK   39  A    between atoms: _83  and  _84
REMARK   40  A    between atoms: _84  and  _85
REMARK   41  A    between atoms: _85  and  _87
REMARK   42  A    between atoms: _87  and  ZN_366
REMARK   43  A    between atoms: _88  and  _90
REMARK   44  A    between atoms: _90  and  _91
REMARK   45  A    between atoms: _94  and  _96
REMARK   46  A    between atoms: _96  and  _97
REMARK   47  A    between atoms: _96  and  _99
REMARK   48  A    between atoms: _99  and  _100
REMARK   49  A    between atoms: _110  and  _112
REMARK   50  A    between atoms: _112  and  _113
REMARK   51  A    between atoms: _112  and  _115
REMARK   52  A    between atoms: _115  and  _116
REMARK   53  A    between atoms: _118  and  _120
REMARK   54  A    between atoms: _120  and  _121
REMARK   55  A    between atoms: _120  and  _123
REMARK   56  A    between atoms: _123  and  _124
REMARK   57  A    between atoms: _127  and  _129
REMARK   58  A    between atoms: _129  and  _130
REMARK   59  A    between atoms: _129  and  _132
REMARK   60  A    between atoms: _132  and  _133
REMARK   61  A    between atoms: _136  and  _138
REMARK   62  A    between atoms: _138  and  _139
REMARK   63  A    between atoms: _138  and  _141
REMARK   64  A    between atoms: _141  and  _142
REMARK   65  A    between atoms: _145  and  _147
REMARK   66  A    between atoms: _147  and  _148
REMARK   67  A    between atoms: _147  and  _150
REMARK   68  A    between atoms: _150  and  _151
REMARK   69  A    between atoms: _154  and  _156
REMARK   70  A    between atoms: _156  and  _157
REMARK   71  A    between atoms: _156  and  _159
REMARK   72  A    between atoms: _159  and  _160
REMARK   73  A    between atoms: _163  and  _165
REMARK   74  A    between atoms: _165  and  _166
REMARK   75  A    between atoms: _165  and  _168
REMARK   76  A    between atoms: _168  and  _169
REMARK   77  A    between atoms: _174  and  _175
REMARK   78  A    between atoms: _177  and  _179
REMARK   79  A    between atoms: _179  and  _180
REMARK   80  A    between atoms: _179  and  _182
REMARK   81  A    between atoms: _182  and  _183
REMARK   82  A    between atoms: _186  and  _188
REMARK   83  A    between atoms: _188  and  _189
REMARK   84  A    between atoms: _191  and  _193
REMARK   85  A    between atoms: _193  and  _194
REMARK   86  A    between atoms: _193  and  _196
REMARK   87  A    between atoms: _196  and  _197
REMARK   88  A    between atoms: _203  and  _205
REMARK   89  A    between atoms: _205  and  _206
REMARK   90  A    between atoms: _205  and  _208
REMARK   91  A    between atoms: _208  and  _209
REMARK   92  A    between atoms: _212  and  _214
REMARK   93  A    between atoms: _214  and  _215
REMARK   94  A    between atoms: _214  and  _217
REMARK   95  A    between atoms: _217  and  _218
REMARK   96  A    between atoms: _218  and  _219
REMARK   97  A    between atoms: _222  and  _224
REMARK   98  A    between atoms: _224  and  _225
REMARK   99  A    between atoms: _224  and  _227
REMARK  100  A    between atoms: _227  and  _228
REMARK  101  A    between atoms: _231  and  _233
REMARK  102  A    between atoms: _233  and  _234
REMARK  103  A    between atoms: _233  and  _236
REMARK  104  A    between atoms: _236  and  _237
REMARK  105  A    between atoms: _240  and  _242
REMARK  106  A    between atoms: _242  and  _243
REMARK  107  A    between atoms: _242  and  _245
REMARK  108  A    between atoms: _245  and  _246
REMARK  109  A    between atoms: _251  and  _253
REMARK  110  A    between atoms: _253  and  _254
REMARK  111  A    between atoms: _253  and  _256
REMARK  112  A    between atoms: _256  and  _257
REMARK  113  A    between atoms: _260  and  _262
REMARK  114  A    between atoms: _262  and  _263
REMARK  115  A    between atoms: _262  and  _265
REMARK  116  A    between atoms: _265  and  _266
REMARK  117  A    between atoms: _271  and  _273
REMARK  118  A    between atoms: _273  and  _274
REMARK  119  A    between atoms: _273  and  _276
REMARK  120  A    between atoms: _276  and  _277
REMARK  121  A    between atoms: _281  and  _282
REMARK  122  A    between atoms: _287  and  _289
REMARK  123  A    between atoms: _289  and  _290
REMARK  124  A    between atoms: _289  and  _292
REMARK  125  A    between atoms: _292  and  _293
REMARK  126  A    between atoms: _296  and  _297
REMARK  127  A    between atoms: _302  and  _304
REMARK  128  A    between atoms: _304  and  _305
REMARK  129  A    between atoms: _304  and  _307
REMARK  130  A    between atoms: _307  and  _308
REMARK  131  A    between atoms: _315  and  _316
REMARK  132  A    between atoms: _321  and  _323
REMARK  133  A    between atoms: _323  and  _324
REMARK  134  A    between atoms: _323  and  _326
REMARK  135  A    between atoms: _326  and  _327
REMARK  136  A    between atoms: _330  and  _332
REMARK  137  A    between atoms: _332  and  _333
REMARK  138  A    between atoms: _332  and  _335
REMARK  139  A    between atoms: _335  and  _336
REMARK  140  A    between atoms: _346  and  _348
REMARK  141  A    between atoms: _348  and  _349
REMARK  142  A    between atoms: _348  and  _351
REMARK  143  A    between atoms: _351  and  _352
REMARK  144  A    between atoms: _356  and  ZN_366
REMARK  145  A    between atoms: _357  and  _359
REMARK  146  A    between atoms: _359  and  _360
REMARK  147  A    between atoms: _359  and  _362
REMARK  148  A    between atoms: _362  and  _363
REMARK                            x       y       z     vdW  Elec       q    Type
REMARK                         _______ _______ _______ _____ _____    ______ ____
ROOT
ATOM      1  C   SER A   1     -11.280  26.963  -9.535  0.00  0.00    +0.241 C 
ATOM      2  N   LEU A   2     -11.246  25.738 -10.055  0.00  0.00    -0.298 N 
ATOM      3  H   LEU A   2     -11.243  24.919  -9.415  0.00  0.00    +0.150 HD
ATOM      4  O   SER A   1     -11.059  27.980 -10.192  0.00  0.00    -0.274 OA
ENDROOT
BRANCH   1   5
ATOM      5  CA  SER A   1     -11.611  27.071  -8.055  0.00  0.00    +0.174 C 
BRANCH   5   6
ATOM      6  N   SER A   1     -11.143  28.389  -7.607  0.00  0.00    -0.236 NA
ATOM      7  H   SER A   1     -10.553  28.937  -8.265  0.00  0.00    +0.142 HD
ENDBRANCH   5   6
BRANCH   5   8
ATOM      8  CB  SER A   1     -13.126  26.917  -7.874  0.00  0.00    +0.163 C 
BRANCH   8   9
ATOM      9  OG  SER A   1     -13.840  27.861  -8.660  0.00  0.00    -0.380 OA
ATOM     10  H   SER A   1     -13.582  28.777  -8.388  0.00  0.00    +0.211 HD
ENDBRANCH   8   9
ENDBRANCH   5   8
ENDBRANCH   1   5
BRANCH   2  11
ATOM     11  CA  LEU A   2     -11.212  25.507 -11.510  0.00  0.00    +0.137 C 
BRANCH  11  12
ATOM     12  C   LEU A   2     -10.032  26.206 -12.182  0.00  0.00    +0.227 C 
ATOM     13  O   LEU A   2     -10.139  26.720 -13.304  0.00  0.00    -0.286 OA
ENDBRANCH  11  12
BRANCH  11  14
ATOM     14  CB  LEU A   2     -12.540  25.944 -12.162  0.00  0.00    +0.028 C 
BRANCH  14  15
ATOM     15  CG  LEU A   2     -13.835  25.453 -11.505  0.00  0.00    +0.002 C 
ATOM     16  CD2 LEU A   2     -13.836  23.950 -11.289  0.00  0.00    +0.000 C 
ATOM     17  CD1 LEU A   2     -15.040  25.881 -12.329  0.00  0.00    +0.000 C 
ENDBRANCH  14  15
ENDBRANCH  11  14
ENDBRANCH   2  11
TORSDOF 8
REMARK  Name = ../refined-set-2016/4mhy/4mhy_pocket.pdb
REMARK  148 active torsions:
REMARK  status: ('A' for Active; 'I' for Inactive)
REMARK    1  A    between atoms: _1  and  _3
REMARK    2  A    between atoms: _3  and  _4
REMARK    3  A    between atoms: _3  and  _6
REMARK    4  A    between atoms: _6  and  _7
REMARK    5  A    between atoms: _12  and  _14
REMARK    6  A    between atoms: _14  and  _15
REMARK    7  A    between atoms: _14  and  _17
REMARK    8  A    between atoms: _17  and  _18
REMARK    9  A    between atoms: _21  and  _23
REMARK   10  A    between atoms: _23  and  _24
REMARK   11  A    between atoms: _23  and  _26
REMARK   12  A    between atoms: _26  and  _27
REMARK   13  A    between atoms: _30  and  _32
REMARK   14  A    between atoms: _32  and  _33
REMARK   15  A    between atoms: _32  and  _35
REMARK   16  A    between atoms: _35  and  _36
REMARK   17  A    between atoms: _42  and  _44
REMARK   18  A    between atoms: _44  and  _45
REMARK   19  A    between atoms: _44  and  _47
REMARK   20  A    between atoms: _47  and  _48
REMARK   21  A    between atoms: _51  and  _53
REMARK   22  A    between atoms: _53  and  _54
REMARK   23  A    between atoms: _53  and  _56
REMARK   24  A    between atoms: _56  and  _57
REMARK   25  A    between atoms: _57  and  _59
REMARK   26  A    between atoms: _59  and  ZN_366
REMARK   27  A    between atoms: _60  and  _62
REMARK   28  A    between atoms: _62  and  _63
REMARK   29  A    between atoms: _62  and  _65
REMARK   30  A    between atoms: _65  and  _66
REMARK   31  A    between atoms: _68  and  _70
REMARK   32  A    between atoms: _70  and  _71
REMARK   33  A    between atoms: _70  and  _73
REMARK   34  A    between atoms: _73  and  _74
REMARK   35  A    between atoms: _74  and  _75
REMARK   36  A    between atoms: _78  and  _80
REMARK   37  A    between atoms: _80  and  _81
REMARK   38  A    between atoms: _80  and  _83
REMARK   39  A    between atoms: _83  and  _84
REMARK   40  A    between atoms: _84  and  _85
REMARK   41  A    between atoms: _85  and  _87
REMARK   42  A    between atoms: _87  and  ZN_366
REMARK   43  A    between atoms: _88  and  _90
REMARK   44  A    between atoms: _90  and  _91
REMARK   45  A    between atoms: _94  and  _96
REMARK   46  A    between atoms: _96  and  _97
REMARK   47  A    between atoms: _96  and  _99
REMARK   48  A    between atoms: _99  and  _100
REMARK   49  A    between atoms: _110  and  _112
REMARK   50  A    between atoms: _112  and  _113
REMARK   51  A    between atoms: _112  and  _115
REMARK   52  A    between atoms: _115  and  _116
REMARK   53  A    between atoms: _118  and  _120
REMARK   54  A    between atoms: _120  and  _121
REMARK   55  A    between atoms: _120  and  _123
REMARK   56  A    between atoms: _123  and  _124
REMARK   57  A    between atoms: _127  and  _129
REMARK   58  A    between atoms: _129  and  _130
REMARK   59  A    between atoms: _129  and  _132
REMARK   60  A    between atoms: _132  and  _133
REMARK   61  A    between atoms: _136  and  _138
REMARK   62  A    between atoms: _138  and  _139
REMARK   63  A    between atoms: _138  and  _141
REMARK   64  A    between atoms: _141  and  _142
REMARK   65  A    between atoms: _145  and  _147
REMARK   66  A    between atoms: _147  and  _148
REMARK   67  A    between atoms: _147  and  _150
REMARK   68  A    between atoms: _150  and  _151
REMARK   69  A    between atoms: _154  and  _156
REMARK   70  A    between atoms: _156  and  _157
REMARK   71  A    between atoms: _156  and  _159
REMARK   72  A    between atoms: _159  and  _160
REMARK   73  A    between atoms: _163  and  _165
REMARK   74  A    between atoms: _165  and  _166
REMARK   75  A    between atoms: _165  and  _168
REMARK   76  A    between atoms: _168  and  _169
REMARK   77  A    between atoms: _174  and  _175
REMARK   78  A    between atoms: _177  and  _179
REMARK   79  A    between atoms: _179  and  _180
REMARK   80  A    between atoms: _179  and  _182
REMARK   81  A    between atoms: _182  and  _183
REMARK   82  A    between atoms: _186  and  _188
REMARK   83  A    between atoms: _188  and  _189
REMARK   84  A    between atoms: _191  and  _193
REMARK   85  A    between atoms: _193  and  _194
REMARK   86  A    between atoms: _193  and  _196
REMARK   87  A    between atoms: _196  and  _197
REMARK   88  A    between atoms: _203  and  _205
REMARK   89  A    between atoms: _205  and  _206
REMARK   90  A    between atoms: _205  and  _208
REMARK   91  A    between atoms: _208  and  _209
REMARK   92  A    between atoms: _212  and  _214
REMARK   93  A    between atoms: _214  and  _215
REMARK   94  A    between atoms: _214  and  _217
REMARK   95  A    between atoms: _217  and  _218
REMARK   96  A    between atoms: _218  and  _219
REMARK   97  A    between atoms: _222  and  _224
REMARK   98  A    between atoms: _224  and  _225
REMARK   99  A    between atoms: _224  and  _227
REMARK  100  A    between atoms: _227  and  _228
REMARK  101  A    between atoms: _231  and  _233
REMARK  102  A    between atoms: _233  and  _234
REMARK  103  A    between atoms: _233  and  _236
REMARK  104  A    between atoms: _236  and  _237
REMARK  105  A    between atoms: _240  and  _242
REMARK  106  A    between atoms: _242  and  _243
REMARK  107  A    between atoms: _242  and  _245
REMARK  108  A    between atoms: _245  and  _246
REMARK  109  A    between atoms: _251  and  _253
REMARK  110  A    between atoms: _253  and  _254
REMARK  111  A    between atoms: _253  and  _256
REMARK  112  A    between atoms: _256  and  _257
REMARK  113  A    between atoms: _260  and  _262
REMARK  114  A    between atoms: _262  and  _263
REMARK  115  A    between atoms: _262  and  _265
REMARK  116  A    between atoms: _265  and  _266
REMARK  117  A    between atoms: _271  and  _273
REMARK  118  A    between atoms: _273  and  _274
REMARK  119  A    between atoms: _273  and  _276
REMARK  120  A    between atoms: _276  and  _277
REMARK  121  A    between atoms: _281  and  _282
REMARK  122  A    between atoms: _287  and  _289
REMARK  123  A    between atoms: _289  and  _290
REMARK  124  A    between atoms: _289  and  _292
REMARK  125  A    between atoms: _292  and  _293
REMARK  126  A    between atoms: _296  and  _297
REMARK  127  A    between atoms: _302  and  _304
REMARK  128  A    between atoms: _304  and  _305
REMARK  129  A    between atoms: _304  and  _307
REMARK  130  A    between atoms: _307  and  _308
REMARK  131  A    between atoms: _315  and  _316
REMARK  132  A    between atoms: _321  and  _323
REMARK  133  A    between atoms: _323  and  _324
REMARK  134  A    between atoms: _323  and  _326
REMARK  135  A    between atoms: _326  and  _327
REMARK  136  A    between atoms: _330  and  _332
REMARK  137  A    between atoms: _332  and  _333
REMARK  138  A    between atoms: _332  and  _335
REMARK  139  A    between atoms: _335  and  _336
REMARK  140  A    between atoms: _346  and  _348
REMARK  141  A    between atoms: _348  and  _349
REMARK  142  A    between atoms: _348  and  _351
REMARK  143  A    between atoms: _351  and  _352
REMARK  144  A    between atoms: _356  and  ZN_366
REMARK  145  A    between atoms: _357  and  _359
REMARK  146  A    between atoms: _359  and  _360
REMARK  147  A    between atoms: _359  and  _362
REMARK  148  A    between atoms: _362  and  _363
REMARK                            x       y       z     vdW  Elec       q    Type
REMARK                         _______ _______ _______ _____ _____    ______ ____
ROOT
ATOM      1  C   LEU A   2     -15.623  12.708 -13.056  0.00  0.00    +0.241 C 
ATOM      2  N   ASP A   3     -16.443  12.655 -12.009  0.00  0.00    -0.297 N 
ATOM      3  H   ASP A   3     -17.361  12.176 -12.102  0.00  0.00    +0.150 HD
ATOM      4  O   LEU A   2     -14.512  13.226 -13.001  0.00  0.00    -0.273 OA
ENDROOT
BRANCH   2   5
ATOM      5  CA  ASP A   3     -16.071  13.263 -10.724  0.00  0.00    +0.160 C 
BRANCH   5   6
ATOM      6  C   ASP A   3     -16.817  12.557  -9.592  0.00  0.00    +0.241 C 
ATOM      7  N   LEU A   4     -16.128  12.368  -8.457  0.00  0.00    -0.298 N 
ATOM      8  H   LEU A   4     -15.120  12.625  -8.440  0.00  0.00    +0.150 HD
ATOM      9  O   ASP A   3     -17.974  12.155  -9.761  0.00  0.00    -0.273 OA
BRANCH   7  10
ATOM     10  CA  LEU A   4     -16.732  11.813  -7.232  0.00  0.00    +0.137 C 
BRANCH  10  11
ATOM     11  C   LEU A   4     -17.261  10.412  -7.444  0.00  0.00    +0.227 C 
ATOM     12  O   LEU A   4     -18.362  10.091  -7.006  0.00  0.00    -0.286 OA
ENDBRANCH  10  11
BRANCH  10  13
ATOM     13  CB  LEU A   4     -17.847  12.713  -6.680  0.00  0.00    +0.028 C 
BRANCH  13  14
ATOM     14  CG  LEU A   4     -17.531  14.205  -6.548  0.00  0.00    +0.002 C 
ATOM     15  CD2 LEU A   4     -16.246  14.406  -5.755  0.00  0.00    +0.000 C 
ATOM     16  CD1 LEU A   4     -18.690  14.925  -5.880  0.00  0.00    +0.000 C 
ENDBRANCH  13  14
ENDBRANCH  10  13
ENDBRANCH   7  10
ENDBRANCH   5   6
BRANCH   5  17
ATOM     17  CB  ASP A   3     -16.360  14.780 -10.754  0.00  0.00    +0.143 C 
BRANCH  17  18
ATOM     18  CG  ASP A   3     -15.589  15.567  -9.698  0.00  0.00    +0.367 C 
ATOM     19  OD2 ASP A   3     -14.907  14.978  -8.837  0.00  0.00    -0.246 OA
ATOM     20  OD1 ASP A   3     -15.667  16.820  -9.733  0.00  0.00    -0.246 OA
ENDBRANCH  17  18
ENDBRANCH   5  17
ENDBRANCH   2   5
BRANCH   1  21
ATOM     21  CA  LEU A   2     -16.076  12.060 -14.347  0.00  0.00    +0.149 C 
BRANCH  21  23
ATOM     22  C   LEU A   1     -16.835  13.786 -15.916  0.00  0.00    +0.238 C 
ATOM     23  N   LEU A   2     -15.874  12.990 -15.452  0.00  0.00    -0.297 N 
ATOM     24  H   LEU A   2     -14.936  13.033 -15.898  0.00  0.00    +0.150 HD
ATOM     25  O   LEU A   1     -17.978  13.788 -15.481  0.00  0.00    -0.274 OA
BRANCH  22  26
ATOM     26  CA  LEU A   1     -16.440  14.711 -17.058  0.00  0.00    +0.145 C 
BRANCH  26  27
ATOM     27  N   LEU A   1     -17.209  14.381 -18.253  0.00  0.00    -0.238 NA
ATOM     28  H   LEU A   1     -18.192  14.711 -18.326  0.00  0.00    +0.142 HD
ENDBRANCH  26  27
BRANCH  26  29
ATOM     29  CB  LEU A   1     -16.645  16.190 -16.670  0.00  0.00    +0.026 C 
BRANCH  29  30
ATOM     30  CG  LEU A   1     -15.983  16.647 -15.367  0.00  0.00    +0.002 C 
ATOM     31  CD2 LEU A   1     -16.365  18.088 -15.044  0.00  0.00    +0.000 C 
ATOM     32  CD1 LEU A   1     -14.466  16.506 -15.451  0.00  0.00    +0.000 C 
ENDBRANCH  29  30
ENDBRANCH  26  29
ENDBRANCH  22  26
ENDBRANCH  21  23
BRANCH  21  33
ATOM     33  CB  LEU A   2     -15.235  10.810 -14.566  0.00  0.00    +0.029 C 
BRANCH  33  34
ATOM     34  CG  LEU A   2     -15.653   9.783 -15.618  0.00  0.00    +0.002 C 
ATOM     35  CD2 LEU A   2     -14.697   8.602 -15.583  0.00  0.00    +0.000 C 
ATOM     36  CD1 LEU A   2     -15.735  10.344 -17.027  0.00  0.00    +0.000 C 
ENDBRANCH  33  34
ENDBRANCH  21  33
ENDBRANCH   1  21
TORSDOF 16
REMARK  Name = ../refined-set-2016/4mhy/4mhy_pocket.pdb
REMARK  148 active torsions:
REMARK  status: ('A' for Active; 'I' for Inactive)
REMARK    1  A    between atoms: _1  and  _3
REMARK    2  A    between atoms: _3  and  _4
REMARK    3  A    between atoms: _3  and  _6
REMARK    4  A    between atoms: _6  and  _7
REMARK    5  A    between atoms: _12  and  _14
REMARK    6  A    between atoms: _14  and  _15
REMARK    7  A    between atoms: _14  and  _17
REMARK    8  A    between atoms: _17  and  _18
REMARK    9  A    between atoms: _21  and  _23
REMARK   10  A    between atoms: _23  and  _24
REMARK   11  A    between atoms: _23  and  _26
REMARK   12  A    between atoms: _26  and  _27
REMARK   13  A    between atoms: _30  and  _32
REMARK   14  A    between atoms: _32  and  _33
REMARK   15  A    between atoms: _32  and  _35
REMARK   16  A    between atoms: _35  and  _36
REMARK   17  A    between atoms: _42  and  _44
REMARK   18  A    between atoms: _44  and  _45
REMARK   19  A    between atoms: _44  and  _47
REMARK   20  A    between atoms: _47  and  _48
REMARK   21  A    between atoms: _51  and  _53
REMARK   22  A    between atoms: _53  and  _54
REMARK   23  A    between atoms: _53  and  _56
REMARK   24  A    between atoms: _56  and  _57
REMARK   25  A    between atoms: _57  and  _59
REMARK   26  A    between atoms: _59  and  ZN_366
REMARK   27  A    between atoms: _60  and  _62
REMARK   28  A    between atoms: _62  and  _63
REMARK   29  A    between atoms: _62  and  _65
REMARK   30  A    between atoms: _65  and  _66
REMARK   31  A    between atoms: _68  and  _70
REMARK   32  A    between atoms: _70  and  _71
REMARK   33  A    between atoms: _70  and  _73
REMARK   34  A    between atoms: _73  and  _74
REMARK   35  A    between atoms: _74  and  _75
REMARK   36  A    between atoms: _78  and  _80
REMARK   37  A    between atoms: _80  and  _81
REMARK   38  A    between atoms: _80  and  _83
REMARK   39  A    between atoms: _83  and  _84
REMARK   40  A    between atoms: _84  and  _85
REMARK   41  A    between atoms: _85  and  _87
REMARK   42  A    between atoms: _87  and  ZN_366
REMARK   43  A    between atoms: _88  and  _90
REMARK   44  A    between atoms: _90  and  _91
REMARK   45  A    between atoms: _94  and  _96
REMARK   46  A    between atoms: _96  and  _97
REMARK   47  A    between atoms: _96  and  _99
REMARK   48  A    between atoms: _99  and  _100
REMARK   49  A    between atoms: _110  and  _112
REMARK   50  A    between atoms: _112  and  _113
REMARK   51  A    between atoms: _112  and  _115
REMARK   52  A    between atoms: _115  and  _116
REMARK   53  A    between atoms: _118  and  _120
REMARK   54  A    between atoms: _120  and  _121
REMARK   55  A    between atoms: _120  and  _123
REMARK   56  A    between atoms: _123  and  _124
REMARK   57  A    between atoms: _127  and  _129
REMARK   58  A    between atoms: _129  and  _130
REMARK   59  A    between atoms: _129  and  _132
REMARK   60  A    between atoms: _132  and  _133
REMARK   61  A    between atoms: _136  and  _138
REMARK   62  A    between atoms: _138  and  _139
REMARK   63  A    between atoms: _138  and  _141
REMARK   64  A    between atoms: _141  and  _142
REMARK   65  A    between atoms: _145  and  _147
REMARK   66  A    between atoms: _147  and  _148
REMARK   67  A    between atoms: _147  and  _150
REMARK   68  A    between atoms: _150  and  _151
REMARK   69  A    between atoms: _154  and  _156
REMARK   70  A    between atoms: _156  and  _157
REMARK   71  A    between atoms: _156  and  _159
REMARK   72  A    between atoms: _159  and  _160
REMARK   73  A    between atoms: _163  and  _165
REMARK   74  A    between atoms: _165  and  _166
REMARK   75  A    between atoms: _165  and  _168
REMARK   76  A    between atoms: _168  and  _169
REMARK   77  A    between atoms: _174  and  _175
REMARK   78  A    between atoms: _177  and  _179
REMARK   79  A    between atoms: _179  and  _180
REMARK   80  A    between atoms: _179  and  _182
REMARK   81  A    between atoms: _182  and  _183
REMARK   82  A    between atoms: _186  and  _188
REMARK   83  A    between atoms: _188  and  _189
REMARK   84  A    between atoms: _191  and  _193
REMARK   85  A    between atoms: _193  and  _194
REMARK   86  A    between atoms: _193  and  _196
REMARK   87  A    between atoms: _196  and  _197
REMARK   88  A    between atoms: _203  and  _205
REMARK   89  A    between atoms: _205  and  _206
REMARK   90  A    between atoms: _205  and  _208
REMARK   91  A    between atoms: _208  and  _209
REMARK   92  A    between atoms: _212  and  _214
REMARK   93  A    between atoms: _214  and  _215
REMARK   94  A    between atoms: _214  and  _217
REMARK   95  A    between atoms: _217  and  _218
REMARK   96  A    between atoms: _218  and  _219
REMARK   97  A    between atoms: _222  and  _224
REMARK   98  A    between atoms: _224  and  _225
REMARK   99  A    between atoms: _224  and  _227
REMARK  100  A    between atoms: _227  and  _228
REMARK  101  A    between atoms: _231  and  _233
REMARK  102  A    between atoms: _233  and  _234
REMARK  103  A    between atoms: _233  and  _236
REMARK  104  A    between atoms: _236  and  _237
REMARK  105  A    between atoms: _240  and  _242
REMARK  106  A    between atoms: _242  and  _243
REMARK  107  A    between atoms: _242  and  _245
REMARK  108  A    between atoms: _245  and  _246
REMARK  109  A    between atoms: _251  and  _253
REMARK  110  A    between atoms: _253  and  _254
REMARK  111  A    between atoms: _253  and  _256
REMARK  112  A    between atoms: _256  and  _257
REMARK  113  A    between atoms: _260  and  _262
REMARK  114  A    between atoms: _262  and  _263
REMARK  115  A    between atoms: _262  and  _265
REMARK  116  A    between atoms: _265  and  _266
REMARK  117  A    between atoms: _271  and  _273
REMARK  118  A    between atoms: _273  and  _274
REMARK  119  A    between atoms: _273  and  _276
REMARK  120  A    between atoms: _276  and  _277
REMARK  121  A    between atoms: _281  and  _282
REMARK  122  A    between atoms: _287  and  _289
REMARK  123  A    between atoms: _289  and  _290
REMARK  124  A    between atoms: _289  and  _292
REMARK  125  A    between atoms: _292  and  _293
REMARK  126  A    between atoms: _296  and  _297
REMARK  127  A    between atoms: _302  and  _304
REMARK  128  A    between atoms: _304  and  _305
REMARK  129  A    between atoms: _304  and  _307
REMARK  130  A    between atoms: _307  and  _308
REMARK  131  A    between atoms: _315  and  _316
REMARK  132  A    between atoms: _321  and  _323
REMARK  133  A    between atoms: _323  and  _324
REMARK  134  A    between atoms: _323  and  _326
REMARK  135  A    between atoms: _326  and  _327
REMARK  136  A    between atoms: _330  and  _332
REMARK  137  A    between atoms: _332  and  _333
REMARK  138  A    between atoms: _332  and  _335
REMARK  139  A    between atoms: _335  and  _336
REMARK  140  A    between atoms: _346  and  _348
REMARK  141  A    between atoms: _348  and  _349
REMARK  142  A    between atoms: _348  and  _351
REMARK  143  A    between atoms: _351  and  _352
REMARK  144  A    between atoms: _356  and  ZN_366
REMARK  145  A    between atoms: _357  and  _359
REMARK  146  A    between atoms: _359  and  _360
REMARK  147  A    between atoms: _359  and  _362
REMARK  148  A    between atoms: _362  and  _363
REMARK                            x       y       z     vdW  Elec       q    Type
REMARK                         _______ _______ _______ _____ _____    ______ ____
ROOT
ATOM      1  CG  TYR A   1     -26.389  17.348 -14.457  0.00  0.00    -0.020 A 
ATOM      2  CD2 TYR A   1     -27.055  18.051 -13.456  0.00  0.00    -0.001 A 
ATOM      3  CE2 TYR A   1     -27.138  17.559 -12.178  0.00  0.00    +0.036 A 
ATOM      4  CZ  TYR A   1     -26.559  16.340 -11.878  0.00  0.00    +0.134 A 
ATOM      5  CE1 TYR A   1     -25.886  15.608 -12.852  0.00  0.00    +0.036 A 
ATOM      6  CD1 TYR A   1     -25.809  16.119 -14.144  0.00  0.00    -0.001 A 
ENDROOT
BRANCH   4   7
ATOM      7  OH  TYR A   1     -26.681  15.893 -10.586  0.00  0.00    -0.506 OA
ATOM      8  HH  TYR A   1     -27.191  16.555 -10.056  0.00  0.00    +0.292 HD
ENDBRANCH   4   7
BRANCH   1   9
ATOM      9  CB  TYR A   1     -26.341  17.899 -15.843  0.00  0.00    +0.051 C 
BRANCH   9  10
ATOM     10  CA  TYR A   1     -27.670  17.657 -16.567  0.00  0.00    +0.137 C 
BRANCH  10  11
ATOM     11  N   TYR A   1     -27.772  16.255 -16.978  0.00  0.00    -0.239 NA
ATOM     12  H   TYR A   1     -26.906  15.744 -17.245  0.00  0.00    +0.142 HD
ENDBRANCH  10  11
BRANCH  10  13
ATOM     13  C   TYR A   1     -27.819  18.652 -17.700  0.00  0.00    +0.224 C 
ATOM     14  O   TYR A   1     -28.003  19.847 -17.453  0.00  0.00    -0.287 OA
ENDBRANCH  10  13
ENDBRANCH   9  10
ENDBRANCH   1   9
TORSDOF 5
REMARK  Name = ../refined-set-2016/4mhy/4mhy_pocket.pdb
REMARK  148 active torsions:
REMARK  status: ('A' for Active; 'I' for Inactive)
REMARK    1  A    between atoms: _1  and  _3
REMARK    2  A    between atoms: _3  and  _4
REMARK    3  A    between atoms: _3  and  _6
REMARK    4  A    between atoms: _6  and  _7
REMARK    5  A    between atoms: _12  and  _14
REMARK    6  A    between atoms: _14  and  _15
REMARK    7  A    between atoms: _14  and  _17
REMARK    8  A    between atoms: _17  and  _18
REMARK    9  A    between atoms: _21  and  _23
REMARK   10  A    between atoms: _23  and  _24
REMARK   11  A    between atoms: _23  and  _26
REMARK   12  A    between atoms: _26  and  _27
REMARK   13  A    between atoms: _30  and  _32
REMARK   14  A    between atoms: _32  and  _33
REMARK   15  A    between atoms: _32  and  _35
REMARK   16  A    between atoms: _35  and  _36
REMARK   17  A    between atoms: _42  and  _44
REMARK   18  A    between atoms: _44  and  _45
REMARK   19  A    between atoms: _44  and  _47
REMARK   20  A    between atoms: _47  and  _48
REMARK   21  A    between atoms: _51  and  _53
REMARK   22  A    between atoms: _53  and  _54
REMARK   23  A    between atoms: _53  and  _56
REMARK   24  A    between atoms: _56  and  _57
REMARK   25  A    between atoms: _57  and  _59
REMARK   26  A    between atoms: _59  and  ZN_366
REMARK   27  A    between atoms: _60  and  _62
REMARK   28  A    between atoms: _62  and  _63
REMARK   29  A    between atoms: _62  and  _65
REMARK   30  A    between atoms: _65  and  _66
REMARK   31  A    between atoms: _68  and  _70
REMARK   32  A    between atoms: _70  and  _71
REMARK   33  A    between atoms: _70  and  _73
REMARK   34  A    between atoms: _73  and  _74
REMARK   35  A    between atoms: _74  and  _75
REMARK   36  A    between atoms: _78  and  _80
REMARK   37  A    between atoms: _80  and  _81
REMARK   38  A    between atoms: _80  and  _83
REMARK   39  A    between atoms: _83  and  _84
REMARK   40  A    between atoms: _84  and  _85
REMARK   41  A    between atoms: _85  and  _87
REMARK   42  A    between atoms: _87  and  ZN_366
REMARK   43  A    between atoms: _88  and  _90
REMARK   44  A    between atoms: _90  and  _91
REMARK   45  A    between atoms: _94  and  _96
REMARK   46  A    between atoms: _96  and  _97
REMARK   47  A    between atoms: _96  and  _99
REMARK   48  A    between atoms: _99  and  _100
REMARK   49  A    between atoms: _110  and  _112
REMARK   50  A    between atoms: _112  and  _113
REMARK   51  A    between atoms: _112  and  _115
REMARK   52  A    between atoms: _115  and  _116
REMARK   53  A    between atoms: _118  and  _120
REMARK   54  A    between atoms: _120  and  _121
REMARK   55  A    between atoms: _120  and  _123
REMARK   56  A    between atoms: _123  and  _124
REMARK   57  A    between atoms: _127  and  _129
REMARK   58  A    between atoms: _129  and  _130
REMARK   59  A    between atoms: _129  and  _132
REMARK   60  A    between atoms: _132  and  _133
REMARK   61  A    between atoms: _136  and  _138
REMARK   62  A    between atoms: _138  and  _139
REMARK   63  A    between atoms: _138  and  _141
REMARK   64  A    between atoms: _141  and  _142
REMARK   65  A    between atoms: _145  and  _147
REMARK   66  A    between atoms: _147  and  _148
REMARK   67  A    between atoms: _147  and  _150
REMARK   68  A    between atoms: _150  and  _151
REMARK   69  A    between atoms: _154  and  _156
REMARK   70  A    between atoms: _156  and  _157
REMARK   71  A    between atoms: _156  and  _159
REMARK   72  A    between atoms: _159  and  _160
REMARK   73  A    between atoms: _163  and  _165
REMARK   74  A    between atoms: _165  and  _166
REMARK   75  A    between atoms: _165  and  _168
REMARK   76  A    between atoms: _168  and  _169
REMARK   77  A    between atoms: _174  and  _175
REMARK   78  A    between atoms: _177  and  _179
REMARK   79  A    between atoms: _179  and  _180
REMARK   80  A    between atoms: _179  and  _182
REMARK   81  A    between atoms: _182  and  _183
REMARK   82  A    between atoms: _186  and  _188
REMARK   83  A    between atoms: _188  and  _189
REMARK   84  A    between atoms: _191  and  _193
REMARK   85  A    between atoms: _193  and  _194
REMARK   86  A    between atoms: _193  and  _196
REMARK   87  A    between atoms: _196  and  _197
REMARK   88  A    between atoms: _203  and  _205
REMARK   89  A    between atoms: _205  and  _206
REMARK   90  A    between atoms: _205  and  _208
REMARK   91  A    between atoms: _208  and  _209
REMARK   92  A    between atoms: _212  and  _214
REMARK   93  A    between atoms: _214  and  _215
REMARK   94  A    between atoms: _214  and  _217
REMARK   95  A    between atoms: _217  and  _218
REMARK   96  A    between atoms: _218  and  _219
REMARK   97  A    between atoms: _222  and  _224
REMARK   98  A    between atoms: _224  and  _225
REMARK   99  A    between atoms: _224  and  _227
REMARK  100  A    between atoms: _227  and  _228
REMARK  101  A    between atoms: _231  and  _233
REMARK  102  A    between atoms: _233  and  _234
REMARK  103  A    between atoms: _233  and  _236
REMARK  104  A    between atoms: _236  and  _237
REMARK  105  A    between atoms: _240  and  _242
REMARK  106  A    between atoms: _242  and  _243
REMARK  107  A    between atoms: _242  and  _245
REMARK  108  A    between atoms: _245  and  _246
REMARK  109  A    between atoms: _251  and  _253
REMARK  110  A    between atoms: _253  and  _254
REMARK  111  A    between atoms: _253  and  _256
REMARK  112  A    between atoms: _256  and  _257
REMARK  113  A    between atoms: _260  and  _262
REMARK  114  A    between atoms: _262  and  _263
REMARK  115  A    between atoms: _262  and  _265
REMARK  116  A    between atoms: _265  and  _266
REMARK  117  A    between atoms: _271  and  _273
REMARK  118  A    between atoms: _273  and  _274
REMARK  119  A    between atoms: _273  and  _276
REMARK  120  A    between atoms: _276  and  _277
REMARK  121  A    between atoms: _281  and  _282
REMARK  122  A    between atoms: _287  and  _289
REMARK  123  A    between atoms: _289  and  _290
REMARK  124  A    between atoms: _289  and  _292
REMARK  125  A    between atoms: _292  and  _293
REMARK  126  A    between atoms: _296  and  _297
REMARK  127  A    between atoms: _302  and  _304
REMARK  128  A    between atoms: _304  and  _305
REMARK  129  A    between atoms: _304  and  _307
REMARK  130  A    between atoms: _307  and  _308
REMARK  131  A    between atoms: _315  and  _316
REMARK  132  A    between atoms: _321  and  _323
REMARK  133  A    between atoms: _323  and  _324
REMARK  134  A    between atoms: _323  and  _326
REMARK  135  A    between atoms: _326  and  _327
REMARK  136  A    between atoms: _330  and  _332
REMARK  137  A    between atoms: _332  and  _333
REMARK  138  A    between atoms: _332  and  _335
REMARK  139  A    between atoms: _335  and  _336
REMARK  140  A    between atoms: _346  and  _348
REMARK  141  A    between atoms: _348  and  _349
REMARK  142  A    between atoms: _348  and  _351
REMARK  143  A    between atoms: _351  and  _352
REMARK  144  A    between atoms: _356  and  ZN_366
REMARK  145  A    between atoms: _357  and  _359
REMARK  146  A    between atoms: _359  and  _360
REMARK  147  A    between atoms: _359  and  _362
REMARK  148  A    between atoms: _362  and  _363
REMARK                            x       y       z     vdW  Elec       q    Type
REMARK                         _______ _______ _______ _____ _____    ______ ____
ROOT
ATOM      1  CA  THR A   1     -32.473  16.843 -12.739  0.00  0.00    +0.160 C 
ENDROOT
BRANCH   1   2
ATOM      2  N   THR A   1     -32.282  16.199 -14.017  0.00  0.00    -0.237 NA
ATOM      3  H   THR A   1     -31.374  16.290 -14.515  0.00  0.00    +0.142 HD
ENDBRANCH   1   2
BRANCH   1   4
ATOM      4  CB  THR A   1     -31.616  16.170 -11.637  0.00  0.00    +0.134 C 
ATOM      5  CG2 THR A   1     -30.160  16.598 -11.703  0.00  0.00    +0.034 C 
BRANCH   4   6
ATOM      6  OG1 THR A   1     -32.150  16.451 -10.336  0.00  0.00    -0.383 OA
ATOM      7  HG1 THR A   1     -31.589  16.013  -9.648  0.00  0.00    +0.210 HD
ENDBRANCH   4   6
ENDBRANCH   1   4
BRANCH   1   8
ATOM      8  C   THR A   1     -32.184  18.325 -12.910  0.00  0.00    +0.227 C 
ATOM      9  O   THR A   1     -31.368  18.713 -13.752  0.00  0.00    -0.287 OA
ENDBRANCH   1   8
TORSDOF 4
REMARK  Name = ../refined-set-2016/4mhy/4mhy_pocket.pdb
REMARK  148 active torsions:
REMARK  status: ('A' for Active; 'I' for Inactive)
REMARK    1  A    between atoms: _1  and  _3
REMARK    2  A    between atoms: _3  and  _4
REMARK    3  A    between atoms: _3  and  _6
REMARK    4  A    between atoms: _6  and  _7
REMARK    5  A    between atoms: _12  and  _14
REMARK    6  A    between atoms: _14  and  _15
REMARK    7  A    between atoms: _14  and  _17
REMARK    8  A    between atoms: _17  and  _18
REMARK    9  A    between atoms: _21  and  _23
REMARK   10  A    between atoms: _23  and  _24
REMARK   11  A    between atoms: _23  and  _26
REMARK   12  A    between atoms: _26  and  _27
REMARK   13  A    between atoms: _30  and  _32
REMARK   14  A    between atoms: _32  and  _33
REMARK   15  A    between atoms: _32  and  _35
REMARK   16  A    between atoms: _35  and  _36
REMARK   17  A    between atoms: _42  and  _44
REMARK   18  A    between atoms: _44  and  _45
REMARK   19  A    between atoms: _44  and  _47
REMARK   20  A    between atoms: _47  and  _48
REMARK   21  A    between atoms: _51  and  _53
REMARK   22  A    between atoms: _53  and  _54
REMARK   23  A    between atoms: _53  and  _56
REMARK   24  A    between atoms: _56  and  _57
REMARK   25  A    between atoms: _57  and  _59
REMARK   26  A    between atoms: _59  and  ZN_366
REMARK   27  A    between atoms: _60  and  _62
REMARK   28  A    between atoms: _62  and  _63
REMARK   29  A    between atoms: _62  and  _65
REMARK   30  A    between atoms: _65  and  _66
REMARK   31  A    between atoms: _68  and  _70
REMARK   32  A    between atoms: _70  and  _71
REMARK   33  A    between atoms: _70  and  _73
REMARK   34  A    between atoms: _73  and  _74
REMARK   35  A    between atoms: _74  and  _75
REMARK   36  A    between atoms: _78  and  _80
REMARK   37  A    between atoms: _80  and  _81
REMARK   38  A    between atoms: _80  and  _83
REMARK   39  A    between atoms: _83  and  _84
REMARK   40  A    between atoms: _84  and  _85
REMARK   41  A    between atoms: _85  and  _87
REMARK   42  A    between atoms: _87  and  ZN_366
REMARK   43  A    between atoms: _88  and  _90
REMARK   44  A    between atoms: _90  and  _91
REMARK   45  A    between atoms: _94  and  _96
REMARK   46  A    between atoms: _96  and  _97
REMARK   47  A    between atoms: _96  and  _99
REMARK   48  A    between atoms: _99  and  _100
REMARK   49  A    between atoms: _110  and  _112
REMARK   50  A    between atoms: _112  and  _113
REMARK   51  A    between atoms: _112  and  _115
REMARK   52  A    between atoms: _115  and  _116
REMARK   53  A    between atoms: _118  and  _120
REMARK   54  A    between atoms: _120  and  _121
REMARK   55  A    between atoms: _120  and  _123
REMARK   56  A    between atoms: _123  and  _124
REMARK   57  A    between atoms: _127  and  _129
REMARK   58  A    between atoms: _129  and  _130
REMARK   59  A    between atoms: _129  and  _132
REMARK   60  A    between atoms: _132  and  _133
REMARK   61  A    between atoms: _136  and  _138
REMARK   62  A    between atoms: _138  and  _139
REMARK   63  A    between atoms: _138  and  _141
REMARK   64  A    between atoms: _141  and  _142
REMARK   65  A    between atoms: _145  and  _147
REMARK   66  A    between atoms: _147  and  _148
REMARK   67  A    between atoms: _147  and  _150
REMARK   68  A    between atoms: _150  and  _151
REMARK   69  A    between atoms: _154  and  _156
REMARK   70  A    between atoms: _156  and  _157
REMARK   71  A    between atoms: _156  and  _159
REMARK   72  A    between atoms: _159  and  _160
REMARK   73  A    between atoms: _163  and  _165
REMARK   74  A    between atoms: _165  and  _166
REMARK   75  A    between atoms: _165  and  _168
REMARK   76  A    between atoms: _168  and  _169
REMARK   77  A    between atoms: _174  and  _175
REMARK   78  A    between atoms: _177  and  _179
REMARK   79  A    between atoms: _179  and  _180
REMARK   80  A    between atoms: _179  and  _182
REMARK   81  A    between atoms: _182  and  _183
REMARK   82  A    between atoms: _186  and  _188
REMARK   83  A    between atoms: _188  and  _189
REMARK   84  A    between atoms: _191  and  _193
REMARK   85  A    between atoms: _193  and  _194
REMARK   86  A    between atoms: _193  and  _196
REMARK   87  A    between atoms: _196  and  _197
REMARK   88  A    between atoms: _203  and  _205
REMARK   89  A    between atoms: _205  and  _206
REMARK   90  A    between atoms: _205  and  _208
REMARK   91  A    between atoms: _208  and  _209
REMARK   92  A    between atoms: _212  and  _214
REMARK   93  A    between atoms: _214  and  _215
REMARK   94  A    between atoms: _214  and  _217
REMARK   95  A    between atoms: _217  and  _218
REMARK   96  A    between atoms: _218  and  _219
REMARK   97  A    between atoms: _222  and  _224
REMARK   98  A    between atoms: _224  and  _225
REMARK   99  A    between atoms: _224  and  _227
REMARK  100  A    between atoms: _227  and  _228
REMARK  101  A    between atoms: _231  and  _233
REMARK  102  A    between atoms: _233  and  _234
REMARK  103  A    between atoms: _233  and  _236
REMARK  104  A    between atoms: _236  and  _237
REMARK  105  A    between atoms: _240  and  _242
REMARK  106  A    between atoms: _242  and  _243
REMARK  107  A    between atoms: _242  and  _245
REMARK  108  A    between atoms: _245  and  _246
REMARK  109  A    between atoms: _251  and  _253
REMARK  110  A    between atoms: _253  and  _254
REMARK  111  A    between atoms: _253  and  _256
REMARK  112  A    between atoms: _256  and  _257
REMARK  113  A    between atoms: _260  and  _262
REMARK  114  A    between atoms: _262  and  _263
REMARK  115  A    between atoms: _262  and  _265
REMARK  116  A    between atoms: _265  and  _266
REMARK  117  A    between atoms: _271  and  _273
REMARK  118  A    between atoms: _273  and  _274
REMARK  119  A    between atoms: _273  and  _276
REMARK  120  A    between atoms: _276  and  _277
REMARK  121  A    between atoms: _281  and  _282
REMARK  122  A    between atoms: _287  and  _289
REMARK  123  A    between atoms: _289  and  _290
REMARK  124  A    between atoms: _289  and  _292
REMARK  125  A    between atoms: _292  and  _293
REMARK  126  A    between atoms: _296  and  _297
REMARK  127  A    between atoms: _302  and  _304
REMARK  128  A    between atoms: _304  and  _305
REMARK  129  A    between atoms: _304  and  _307
REMARK  130  A    between atoms: _307  and  _308
REMARK  131  A    between atoms: _315  and  _316
REMARK  132  A    between atoms: _321  and  _323
REMARK  133  A    between atoms: _323  and  _324
REMARK  134  A    between atoms: _323  and  _326
REMARK  135  A    between atoms: _326  and  _327
REMARK  136  A    between atoms: _330  and  _332
REMARK  137  A    between atoms: _332  and  _333
REMARK  138  A    between atoms: _332  and  _335
REMARK  139  A    between atoms: _335  and  _336
REMARK  140  A    between atoms: _346  and  _348
REMARK  141  A    between atoms: _348  and  _349
REMARK  142  A    between atoms: _348  and  _351
REMARK  143  A    between atoms: _351  and  _352
REMARK  144  A    between atoms: _356  and  ZN_366
REMARK  145  A    between atoms: _357  and  _359
REMARK  146  A    between atoms: _359  and  _360
REMARK  147  A    between atoms: _359  and  _362
REMARK  148  A    between atoms: _362  and  _363
REMARK                            x       y       z     vdW  Elec       q    Type
REMARK                         _______ _______ _______ _____ _____    ______ ____
ROOT
ATOM      1  C   GLU A   4     -18.708  22.749 -10.508  0.00  0.00    +0.241 C 
ATOM      2  O   GLU A   4     -18.483  22.022  -9.540  0.00  0.00    -0.273 OA
ATOM      3  N   ASP A   5     -18.013  22.684 -11.636  0.00  0.00    -0.297 N 
ATOM      4  H   ASP A   5     -18.243  23.343 -12.407  0.00  0.00    +0.150 HD
ENDROOT
BRANCH   1   5
ATOM      5  CA  GLU A   4     -19.841  23.772 -10.485  0.00  0.00    +0.149 C 
BRANCH   5   7
ATOM      6  C   ILE A   3     -21.862  22.437 -10.663  0.00  0.00    +0.241 C 
ATOM      7  N   GLU A   4     -21.039  23.164  -9.921  0.00  0.00    -0.297 N 
ATOM      8  H   GLU A   4     -21.253  23.304  -8.913  0.00  0.00    +0.150 HD
ATOM      9  O   ILE A   3     -21.753  22.334 -11.886  0.00  0.00    -0.273 OA
BRANCH   6  10
ATOM     10  CA  ILE A   3     -22.997  21.746  -9.924  0.00  0.00    +0.149 C 
BRANCH  10  13
ATOM     11  C   PHE A   2     -25.232  22.694  -9.859  0.00  0.00    +0.241 C 
ATOM     12  O   PHE A   2     -25.219  22.794  -8.634  0.00  0.00    -0.273 OA
ATOM     13  N   ILE A   3     -24.235  22.163 -10.559  0.00  0.00    -0.297 N 
ATOM     14  H   ILE A   3     -24.344  22.043 -11.586  0.00  0.00    +0.150 HD
BRANCH  11  15
ATOM     15  CA  PHE A   2     -26.438  23.142 -10.652  0.00  0.00    +0.153 C 
BRANCH  15  17
ATOM     16  C   GLY A   1     -28.202  21.491 -10.814  0.00  0.00    +0.240 C 
ATOM     17  N   PHE A   2     -27.580  22.434 -10.125  0.00  0.00    -0.297 N 
ATOM     18  H   PHE A   2     -27.925  22.673  -9.173  0.00  0.00    +0.150 HD
ATOM     19  O   GLY A   1     -27.878  21.155 -11.959  0.00  0.00    -0.274 OA
BRANCH  16  20
ATOM     20  CA  GLY A   1     -29.383  20.855 -10.126  0.00  0.00    +0.169 C 
BRANCH  20  21
ATOM     21  N   GLY A   1     -30.398  20.658 -11.138  0.00  0.00    -0.236 NA
ATOM     22  H   GLY A   1     -30.095  20.437 -12.108  0.00  0.00    +0.142 HD
ENDBRANCH  20  21
ENDBRANCH  16  20
ENDBRANCH  15  17
BRANCH  15  23
ATOM     23  CB  PHE A   2     -26.648  24.651 -10.518  0.00  0.00    +0.055 C 
BRANCH  23  24
ATOM     24  CG  PHE A   2     -25.498  25.473 -11.020  0.00  0.00    -0.020 A 
ATOM     25  CD2 PHE A   2     -24.714  26.201 -10.133  0.00  0.00    -0.004 A 
ATOM     26  CE2 PHE A   2     -23.656  26.968 -10.590  0.00  0.00    -0.000 A 
ATOM     27  CZ  PHE A   2     -23.365  27.011 -11.945  0.00  0.00    -0.000 A 
ATOM     28  CE1 PHE A   2     -24.138  26.291 -12.842  0.00  0.00    -0.000 A 
ATOM     29  CD1 PHE A   2     -25.203  25.530 -12.380  0.00  0.00    -0.004 A 
ENDBRANCH  23  24
ENDBRANCH  15  23
ENDBRANCH  11  15
ENDBRANCH  10  13
BRANCH  10  30
ATOM     30  CB  ILE A   3     -22.812  20.212  -9.950  0.00  0.00    +0.027 C 
ATOM     31  CG2 ILE A   3     -21.508  19.834  -9.260  0.00  0.00    +0.002 C 
BRANCH  30  32
ATOM     32  CG1 ILE A   3     -23.984  19.509  -9.252  0.00  0.00    +0.002 C 
ATOM     33  CD1 ILE A   3     -24.090  18.015  -9.496  0.00  0.00    +0.000 C 
ENDBRANCH  30  32
ENDBRANCH  10  30
ENDBRANCH   6  10
ENDBRANCH   5   7
BRANCH   5  34
ATOM     34  CB  GLU A   4     -19.454  25.033  -9.708  0.00  0.00    +0.041 C 
BRANCH  34  35
ATOM     35  CG  GLU A   4     -20.487  26.146  -9.881  0.00  0.00    +0.116 C 
BRANCH  35  36
ATOM     36  CD  GLU A   4     -20.221  27.403  -9.075  0.00  0.00    +0.365 C 
ATOM     37  OE2 GLU A   4     -19.175  27.502  -8.409  0.00  0.00    -0.246 OA
ATOM     38  OE1 GLU A   4     -21.077  28.309  -9.118  0.00  0.00    -0.246 OA
ENDBRANCH  35  36
ENDBRANCH  34  35
ENDBRANCH   5  34
ENDBRANCH   1   5
BRANCH   3  39
ATOM     39  CA  ASP A   5     -16.931  21.713 -11.831  0.00  0.00    +0.160 C 
BRANCH  39  40
ATOM     40  C   ASP A   5     -16.159  22.146 -13.072  0.00  0.00    +0.241 C 
ATOM     41  N   ASP A   6     -15.168  21.341 -13.456  0.00  0.00    -0.297 N 
ATOM     42  H   ASP A   6     -15.030  20.449 -12.938  0.00  0.00    +0.150 HD
ATOM     43  O   ASP A   5     -16.473  23.184 -13.673  0.00  0.00    -0.273 OA
BRANCH  41  44
ATOM     44  CA  ASP A   6     -14.263  21.643 -14.566  0.00  0.00    +0.160 C 
BRANCH  44  45
ATOM     45  C   ASP A   6     -14.936  21.821 -15.928  0.00  0.00    +0.241 C 
ATOM     46  N   HIS A   7     -16.185  21.373 -16.058  0.00  0.00    -0.297 N 
ATOM     47  H   HIS A   7     -16.641  20.872 -15.269  0.00  0.00    +0.150 HD
ATOM     48  O   ASP A   6     -14.329  22.350 -16.854  0.00  0.00    -0.273 OA
BRANCH  46  49
ATOM     49  CA  HIS A   7     -16.919  21.586 -17.313  0.00  0.00    +0.155 C 
BRANCH  49  50
ATOM     50  C   HIS A   7     -17.347  23.016 -17.541  0.00  0.00    +0.241 C 
ATOM     51  N   ILE A   8     -17.461  23.804 -16.472  0.00  0.00    -0.298 N 
ATOM     52  H   ILE A   8     -17.116  23.464 -15.551  0.00  0.00    +0.150 HD
ATOM     53  O   HIS A   7     -17.571  23.410 -18.683  0.00  0.00    -0.273 OA
BRANCH  51  54
ATOM     54  CA  ILE A   8     -18.062  25.141 -16.564  0.00  0.00    +0.137 C 
BRANCH  54  55
ATOM     55  C   ILE A   8     -17.380  26.057 -17.599  0.00  0.00    +0.227 C 
ATOM     56  O   ILE A   8     -18.074  26.646 -18.430  0.00  0.00    -0.286 OA
ENDBRANCH  54  55
BRANCH  54  57
ATOM     57  CB  ILE A   8     -18.158  25.816 -15.163  0.00  0.00    +0.026 C 
ATOM     58  CG2 ILE A   8     -18.406  27.321 -15.268  0.00  0.00    +0.002 C 
BRANCH  57  59
ATOM     59  CG1 ILE A   8     -19.213  25.111 -14.280  0.00  0.00    +0.002 C 
ATOM     60  CD1 ILE A   8     -20.668  25.378 -14.618  0.00  0.00    +0.000 C 
ENDBRANCH  57  59
ENDBRANCH  54  57
ENDBRANCH  51  54
ENDBRANCH  49  50
BRANCH  49  61
ATOM     61  CB  HIS A   7     -18.148  20.694 -17.366  0.00  0.00    +0.076 C 
BRANCH  61  62
ATOM     62  CG  HIS A   7     -19.185  21.053 -16.335  0.00  0.00    +0.082 A 
ATOM     63  ND1 HIS A   7     -18.952  20.928 -15.012  0.00  0.00    -0.227 NA
ATOM     64  CE1 HIS A   7     -20.030  21.347 -14.327  0.00  0.00    +0.199 A 
ATOM     65  NE2 HIS A   7     -20.960  21.749 -15.218  0.00  0.00    -0.221 NA
ATOM     66  CD2 HIS A   7     -20.465  21.592 -16.463  0.00  0.00    +0.115 A 
ENDBRANCH  61  62
ENDBRANCH  49  61
ENDBRANCH  46  49
ENDBRANCH  44  45
BRANCH  44  67
ATOM     67  CB  ASP A   6     -13.207  20.545 -14.668  0.00  0.00    +0.143 C 
BRANCH  67  68
ATOM     68  CG  ASP A   6     -12.149  20.636 -13.581  0.00  0.00    +0.367 C 
ATOM     69  OD2 ASP A   6     -11.745  19.579 -13.068  0.00  0.00    -0.246 OA
ATOM     70  OD1 ASP A   6     -11.706  21.757 -13.250  0.00  0.00    -0.246 OA
ENDBRANCH  67  68
ENDBRANCH  44  67
ENDBRANCH  41  44
ENDBRANCH  39  40
BRANCH  39  71
ATOM     71  CB  ASP A   5     -17.523  20.293 -11.985  0.00  0.00    +0.143 C 
BRANCH  71  72
ATOM     72  CG  ASP A   5     -16.554  19.170 -11.614  0.00  0.00    +0.367 C 
ATOM     73  OD2 ASP A   5     -15.344  19.405 -11.476  0.00  0.00    -0.246 OA
ATOM     74  OD1 ASP A   5     -17.038  18.028 -11.477  0.00  0.00    -0.246 OA
ENDBRANCH  71  72
ENDBRANCH  39  71
ENDBRANCH   3  39
TORSDOF 31
REMARK  Name = ../refined-set-2016/4mhy/4mhy_pocket.pdb
REMARK  148 active torsions:
REMARK  status: ('A' for Active; 'I' for Inactive)
REMARK    1  A    between atoms: _1  and  _3
REMARK    2  A    between atoms: _3  and  _4
REMARK    3  A    between atoms: _3  and  _6
REMARK    4  A    between atoms: _6  and  _7
REMARK    5  A    between atoms: _12  and  _14
REMARK    6  A    between atoms: _14  and  _15
REMARK    7  A    between atoms: _14  and  _17
REMARK    8  A    between atoms: _17  and  _18
REMARK    9  A    between atoms: _21  and  _23
REMARK   10  A    between atoms: _23  and  _24
REMARK   11  A    between atoms: _23  and  _26
REMARK   12  A    between atoms: _26  and  _27
REMARK   13  A    between atoms: _30  and  _32
REMARK   14  A    between atoms: _32  and  _33
REMARK   15  A    between atoms: _32  and  _35
REMARK   16  A    between atoms: _35  and  _36
REMARK   17  A    between atoms: _42  and  _44
REMARK   18  A    between atoms: _44  and  _45
REMARK   19  A    between atoms: _44  and  _47
REMARK   20  A    between atoms: _47  and  _48
REMARK   21  A    between atoms: _51  and  _53
REMARK   22  A    between atoms: _53  and  _54
REMARK   23  A    between atoms: _53  and  _56
REMARK   24  A    between atoms: _56  and  _57
REMARK   25  A    between atoms: _57  and  _59
REMARK   26  A    between atoms: _59  and  ZN_366
REMARK   27  A    between atoms: _60  and  _62
REMARK   28  A    between atoms: _62  and  _63
REMARK   29  A    between atoms: _62  and  _65
REMARK   30  A    between atoms: _65  and  _66
REMARK   31  A    between atoms: _68  and  _70
REMARK   32  A    between atoms: _70  and  _71
REMARK   33  A    between atoms: _70  and  _73
REMARK   34  A    between atoms: _73  and  _74
REMARK   35  A    between atoms: _74  and  _75
REMARK   36  A    between atoms: _78  and  _80
REMARK   37  A    between atoms: _80  and  _81
REMARK   38  A    between atoms: _80  and  _83
REMARK   39  A    between atoms: _83  and  _84
REMARK   40  A    between atoms: _84  and  _85
REMARK   41  A    between atoms: _85  and  _87
REMARK   42  A    between atoms: _87  and  ZN_366
REMARK   43  A    between atoms: _88  and  _90
REMARK   44  A    between atoms: _90  and  _91
REMARK   45  A    between atoms: _94  and  _96
REMARK   46  A    between atoms: _96  and  _97
REMARK   47  A    between atoms: _96  and  _99
REMARK   48  A    between atoms: _99  and  _100
REMARK   49  A    between atoms: _110  and  _112
REMARK   50  A    between atoms: _112  and  _113
REMARK   51  A    between atoms: _112  and  _115
REMARK   52  A    between atoms: _115  and  _116
REMARK   53  A    between atoms: _118  and  _120
REMARK   54  A    between atoms: _120  and  _121
REMARK   55  A    between atoms: _120  and  _123
REMARK   56  A    between atoms: _123  and  _124
REMARK   57  A    between atoms: _127  and  _129
REMARK   58  A    between atoms: _129  and  _130
REMARK   59  A    between atoms: _129  and  _132
REMARK   60  A    between atoms: _132  and  _133
REMARK   61  A    between atoms: _136  and  _138
REMARK   62  A    between atoms: _138  and  _139
REMARK   63  A    between atoms: _138  and  _141
REMARK   64  A    between atoms: _141  and  _142
REMARK   65  A    between atoms: _145  and  _147
REMARK   66  A    between atoms: _147  and  _148
REMARK   67  A    between atoms: _147  and  _150
REMARK   68  A    between atoms: _150  and  _151
REMARK   69  A    between atoms: _154  and  _156
REMARK   70  A    between atoms: _156  and  _157
REMARK   71  A    between atoms: _156  and  _159
REMARK   72  A    between atoms: _159  and  _160
REMARK   73  A    between atoms: _163  and  _165
REMARK   74  A    between atoms: _165  and  _166
REMARK   75  A    between atoms: _165  and  _168
REMARK   76  A    between atoms: _168  and  _169
REMARK   77  A    between atoms: _174  and  _175
REMARK   78  A    between atoms: _177  and  _179
REMARK   79  A    between atoms: _179  and  _180
REMARK   80  A    between atoms: _179  and  _182
REMARK   81  A    between atoms: _182  and  _183
REMARK   82  A    between atoms: _186  and  _188
REMARK   83  A    between atoms: _188  and  _189
REMARK   84  A    between atoms: _191  and  _193
REMARK   85  A    between atoms: _193  and  _194
REMARK   86  A    between atoms: _193  and  _196
REMARK   87  A    between atoms: _196  and  _197
REMARK   88  A    between atoms: _203  and  _205
REMARK   89  A    between atoms: _205  and  _206
REMARK   90  A    between atoms: _205  and  _208
REMARK   91  A    between atoms: _208  and  _209
REMARK   92  A    between atoms: _212  and  _214
REMARK   93  A    between atoms: _214  and  _215
REMARK   94  A    between atoms: _214  and  _217
REMARK   95  A    between atoms: _217  and  _218
REMARK   96  A    between atoms: _218  and  _219
REMARK   97  A    between atoms: _222  and  _224
REMARK   98  A    between atoms: _224  and  _225
REMARK   99  A    between atoms: _224  and  _227
REMARK  100  A    between atoms: _227  and  _228
REMARK  101  A    between atoms: _231  and  _233
REMARK  102  A    between atoms: _233  and  _234
REMARK  103  A    between atoms: _233  and  _236
REMARK  104  A    between atoms: _236  and  _237
REMARK  105  A    between atoms: _240  and  _242
REMARK  106  A    between atoms: _242  and  _243
REMARK  107  A    between atoms: _242  and  _245
REMARK  108  A    between atoms: _245  and  _246
REMARK  109  A    between atoms: _251  and  _253
REMARK  110  A    between atoms: _253  and  _254
REMARK  111  A    between atoms: _253  and  _256
REMARK  112  A    between atoms: _256  and  _257
REMARK  113  A    between atoms: _260  and  _262
REMARK  114  A    between atoms: _262  and  _263
REMARK  115  A    between atoms: _262  and  _265
REMARK  116  A    between atoms: _265  and  _266
REMARK  117  A    between atoms: _271  and  _273
REMARK  118  A    between atoms: _273  and  _274
REMARK  119  A    between atoms: _273  and  _276
REMARK  120  A    between atoms: _276  and  _277
REMARK  121  A    between atoms: _281  and  _282
REMARK  122  A    between atoms: _287  and  _289
REMARK  123  A    between atoms: _289  and  _290
REMARK  124  A    between atoms: _289  and  _292
REMARK  125  A    between atoms: _292  and  _293
REMARK  126  A    between atoms: _296  and  _297
REMARK  127  A    between atoms: _302  and  _304
REMARK  128  A    between atoms: _304  and  _305
REMARK  129  A    between atoms: _304  and  _307
REMARK  130  A    between atoms: _307  and  _308
REMARK  131  A    between atoms: _315  and  _316
REMARK  132  A    between atoms: _321  and  _323
REMARK  133  A    between atoms: _323  and  _324
REMARK  134  A    between atoms: _323  and  _326
REMARK  135  A    between atoms: _326  and  _327
REMARK  136  A    between atoms: _330  and  _332
REMARK  137  A    between atoms: _332  and  _333
REMARK  138  A    between atoms: _332  and  _335
REMARK  139  A    between atoms: _335  and  _336
REMARK  140  A    between atoms: _346  and  _348
REMARK  141  A    between atoms: _348  and  _349
REMARK  142  A    between atoms: _348  and  _351
REMARK  143  A    between atoms: _351  and  _352
REMARK  144  A    between atoms: _356  and  ZN_366
REMARK  145  A    between atoms: _357  and  _359
REMARK  146  A    between atoms: _359  and  _360
REMARK  147  A    between atoms: _359  and  _362
REMARK  148  A    between atoms: _362  and  _363
REMARK                            x       y       z     vdW  Elec       q    Type
REMARK                         _______ _______ _______ _____ _____    ______ ____
ROOT
ATOM      1  CB  HIS A   1     -21.860  16.648 -15.593  0.00  0.00    +0.072 C 
ENDROOT
BRANCH   1   2
ATOM      2  CG  HIS A   1     -20.984  17.115 -14.451  0.00  0.00    +0.082 A 
ATOM      3  ND1 HIS A   1     -21.343  18.142 -13.658  0.00  0.00    -0.227 NA
ATOM      4  CE1 HIS A   1     -20.387  18.362 -12.739  0.00  0.00    +0.199 A 
ATOM      5  NE2 HIS A   1     -19.396  17.481 -12.945  0.00  0.00    -0.221 NA
ATOM      6  CD2 HIS A   1     -19.730  16.685 -13.993  0.00  0.00    +0.115 A 
ENDBRANCH   1   2
BRANCH   1   7
ATOM      7  CA  HIS A   1     -21.369  15.380 -16.290  0.00  0.00    +0.139 C 
BRANCH   7   8
ATOM      8  N   HIS A   1     -21.995  15.285 -17.608  0.00  0.00    -0.239 NA
ATOM      9  H   HIS A   1     -23.014  15.469 -17.702  0.00  0.00    +0.142 HD
ENDBRANCH   7   8
BRANCH   7  10
ATOM     10  C   HIS A   1     -21.668  14.148 -15.474  0.00  0.00    +0.224 C 
ATOM     11  O   HIS A   1     -22.766  14.008 -14.926  0.00  0.00    -0.287 OA
ENDBRANCH   7  10
ENDBRANCH   1   7
TORSDOF 4
REMARK  Name = ../refined-set-2016/4mhy/4mhy_pocket.pdb
REMARK  148 active torsions:
REMARK  status: ('A' for Active; 'I' for Inactive)
REMARK    1  A    between atoms: _1  and  _3
REMARK    2  A    between atoms: _3  and  _4
REMARK    3  A    between atoms: _3  and  _6
REMARK    4  A    between atoms: _6  and  _7
REMARK    5  A    between atoms: _12  and  _14
REMARK    6  A    between atoms: _14  and  _15
REMARK    7  A    between atoms: _14  and  _17
REMARK    8  A    between atoms: _17  and  _18
REMARK    9  A    between atoms: _21  and  _23
REMARK   10  A    between atoms: _23  and  _24
REMARK   11  A    between atoms: _23  and  _26
REMARK   12  A    between atoms: _26  and  _27
REMARK   13  A    between atoms: _30  and  _32
REMARK   14  A    between atoms: _32  and  _33
REMARK   15  A    between atoms: _32  and  _35
REMARK   16  A    between atoms: _35  and  _36
REMARK   17  A    between atoms: _42  and  _44
REMARK   18  A    between atoms: _44  and  _45
REMARK   19  A    between atoms: _44  and  _47
REMARK   20  A    between atoms: _47  and  _48
REMARK   21  A    between atoms: _51  and  _53
REMARK   22  A    between atoms: _53  and  _54
REMARK   23  A    between atoms: _53  and  _56
REMARK   24  A    between atoms: _56  and  _57
REMARK   25  A    between atoms: _57  and  _59
REMARK   26  A    between atoms: _59  and  ZN_366
REMARK   27  A    between atoms: _60  and  _62
REMARK   28  A    between atoms: _62  and  _63
REMARK   29  A    between atoms: _62  and  _65
REMARK   30  A    between atoms: _65  and  _66
REMARK   31  A    between atoms: _68  and  _70
REMARK   32  A    between atoms: _70  and  _71
REMARK   33  A    between atoms: _70  and  _73
REMARK   34  A    between atoms: _73  and  _74
REMARK   35  A    between atoms: _74  and  _75
REMARK   36  A    between atoms: _78  and  _80
REMARK   37  A    between atoms: _80  and  _81
REMARK   38  A    between atoms: _80  and  _83
REMARK   39  A    between atoms: _83  and  _84
REMARK   40  A    between atoms: _84  and  _85
REMARK   41  A    between atoms: _85  and  _87
REMARK   42  A    between atoms: _87  and  ZN_366
REMARK   43  A    between atoms: _88  and  _90
REMARK   44  A    between atoms: _90  and  _91
REMARK   45  A    between atoms: _94  and  _96
REMARK   46  A    between atoms: _96  and  _97
REMARK   47  A    between atoms: _96  and  _99
REMARK   48  A    between atoms: _99  and  _100
REMARK   49  A    between atoms: _110  and  _112
REMARK   50  A    between atoms: _112  and  _113
REMARK   51  A    between atoms: _112  and  _115
REMARK   52  A    between atoms: _115  and  _116
REMARK   53  A    between atoms: _118  and  _120
REMARK   54  A    between atoms: _120  and  _121
REMARK   55  A    between atoms: _120  and  _123
REMARK   56  A    between atoms: _123  and  _124
REMARK   57  A    between atoms: _127  and  _129
REMARK   58  A    between atoms: _129  and  _130
REMARK   59  A    between atoms: _129  and  _132
REMARK   60  A    between atoms: _132  and  _133
REMARK   61  A    between atoms: _136  and  _138
REMARK   62  A    between atoms: _138  and  _139
REMARK   63  A    between atoms: _138  and  _141
REMARK   64  A    between atoms: _141  and  _142
REMARK   65  A    between atoms: _145  and  _147
REMARK   66  A    between atoms: _147  and  _148
REMARK   67  A    between atoms: _147  and  _150
REMARK   68  A    between atoms: _150  and  _151
REMARK   69  A    between atoms: _154  and  _156
REMARK   70  A    between atoms: _156  and  _157
REMARK   71  A    between atoms: _156  and  _159
REMARK   72  A    between atoms: _159  and  _160
REMARK   73  A    between atoms: _163  and  _165
REMARK   74  A    between atoms: _165  and  _166
REMARK   75  A    between atoms: _165  and  _168
REMARK   76  A    between atoms: _168  and  _169
REMARK   77  A    between atoms: _174  and  _175
REMARK   78  A    between atoms: _177  and  _179
REMARK   79  A    between atoms: _179  and  _180
REMARK   80  A    between atoms: _179  and  _182
REMARK   81  A    between atoms: _182  and  _183
REMARK   82  A    between atoms: _186  and  _188
REMARK   83  A    between atoms: _188  and  _189
REMARK   84  A    between atoms: _191  and  _193
REMARK   85  A    between atoms: _193  and  _194
REMARK   86  A    between atoms: _193  and  _196
REMARK   87  A    between atoms: _196  and  _197
REMARK   88  A    between atoms: _203  and  _205
REMARK   89  A    between atoms: _205  and  _206
REMARK   90  A    between atoms: _205  and  _208
REMARK   91  A    between atoms: _208  and  _209
REMARK   92  A    between atoms: _212  and  _214
REMARK   93  A    between atoms: _214  and  _215
REMARK   94  A    between atoms: _214  and  _217
REMARK   95  A    between atoms: _217  and  _218
REMARK   96  A    between atoms: _218  and  _219
REMARK   97  A    between atoms: _222  and  _224
REMARK   98  A    between atoms: _224  and  _225
REMARK   99  A    between atoms: _224  and  _227
REMARK  100  A    between atoms: _227  and  _228
REMARK  101  A    between atoms: _231  and  _233
REMARK  102  A    between atoms: _233  and  _234
REMARK  103  A    between atoms: _233  and  _236
REMARK  104  A    between atoms: _236  and  _237
REMARK  105  A    between atoms: _240  and  _242
REMARK  106  A    between atoms: _242  and  _243
REMARK  107  A    between atoms: _242  and  _245
REMARK  108  A    between atoms: _245  and  _246
REMARK  109  A    between atoms: _251  and  _253
REMARK  110  A    between atoms: _253  and  _254
REMARK  111  A    between atoms: _253  and  _256
REMARK  112  A    between atoms: _256  and  _257
REMARK  113  A    between atoms: _260  and  _262
REMARK  114  A    between atoms: _262  and  _263
REMARK  115  A    between atoms: _262  and  _265
REMARK  116  A    between atoms: _265  and  _266
REMARK  117  A    between atoms: _271  and  _273
REMARK  118  A    between atoms: _273  and  _274
REMARK  119  A    between atoms: _273  and  _276
REMARK  120  A    between atoms: _276  and  _277
REMARK  121  A    between atoms: _281  and  _282
REMARK  122  A    between atoms: _287  and  _289
REMARK  123  A    between atoms: _289  and  _290
REMARK  124  A    between atoms: _289  and  _292
REMARK  125  A    between atoms: _292  and  _293
REMARK  126  A    between atoms: _296  and  _297
REMARK  127  A    between atoms: _302  and  _304
REMARK  128  A    between atoms: _304  and  _305
REMARK  129  A    between atoms: _304  and  _307
REMARK  130  A    between atoms: _307  and  _308
REMARK  131  A    between atoms: _315  and  _316
REMARK  132  A    between atoms: _321  and  _323
REMARK  133  A    between atoms: _323  and  _324
REMARK  134  A    between atoms: _323  and  _326
REMARK  135  A    between atoms: _326  and  _327
REMARK  136  A    between atoms: _330  and  _332
REMARK  137  A    between atoms: _332  and  _333
REMARK  138  A    between atoms: _332  and  _335
REMARK  139  A    between atoms: _335  and  _336
REMARK  140  A    between atoms: _346  and  _348
REMARK  141  A    between atoms: _348  and  _349
REMARK  142  A    between atoms: _348  and  _351
REMARK  143  A    between atoms: _351  and  _352
REMARK  144  A    between atoms: _356  and  ZN_366
REMARK  145  A    between atoms: _357  and  _359
REMARK  146  A    between atoms: _359  and  _360
REMARK  147  A    between atoms: _359  and  _362
REMARK  148  A    between atoms: _362  and  _363
REMARK                            x       y       z     vdW  Elec       q    Type
REMARK                         _______ _______ _______ _____ _____    ______ ____
ROOT
ATOM      1  C   PRO A   4     -24.795  12.951  -4.042  0.00  0.00    +0.241 C 
ATOM      2  N   PHE A   5     -23.905  13.842  -3.618  0.00  0.00    -0.297 N 
ATOM      3  H   PHE A   5     -24.230  14.791  -3.343  0.00  0.00    +0.150 HD
ATOM      4  O   PRO A   4     -24.486  11.858  -4.536  0.00  0.00    -0.273 OA
ENDROOT
BRANCH   1   7
ATOM      5  C   SER A   3     -27.308  12.687  -6.076  0.00  0.00    +0.246 C 
ATOM      6  N   PRO A   4     -27.180  12.619  -4.742  0.00  0.00    -0.272 N 
ATOM      7  CA  PRO A   4     -26.259  13.358  -3.877  0.00  0.00    +0.152 C 
ATOM      8  CB  PRO A   4     -26.750  12.993  -2.463  0.00  0.00    +0.031 C 
ATOM      9  CG  PRO A   4     -27.364  11.646  -2.626  0.00  0.00    +0.024 C 
ATOM     10  CD  PRO A   4     -28.028  11.688  -3.971  0.00  0.00    +0.094 C 
ATOM     11  O   SER A   3     -28.169  12.063  -6.686  0.00  0.00    -0.273 OA
BRANCH   5  12
ATOM     12  CA  SER A   3     -26.301  13.537  -6.842  0.00  0.00    +0.178 C 
BRANCH  12  15
ATOM     13  C   PRO A   2     -24.192  12.795  -7.800  0.00  0.00    +0.241 C 
ATOM     14  O   PRO A   2     -23.580  13.786  -7.414  0.00  0.00    -0.273 OA
ATOM     15  N   SER A   3     -25.503  12.643  -7.661  0.00  0.00    -0.295 N 
ATOM     16  H   SER A   3     -25.974  11.858  -8.155  0.00  0.00    +0.150 HD
BRANCH  13  22
ATOM     17  C   ILE A   1     -22.335  12.691 -10.342  0.00  0.00    +0.241 C 
ATOM     18  N   PRO A   2     -22.237  12.060  -9.158  0.00  0.00    -0.272 N 
ATOM     19  CD  PRO A   2     -21.039  11.679  -8.392  0.00  0.00    +0.094 C 
ATOM     20  CG  PRO A   2     -21.511  10.500  -7.604  0.00  0.00    +0.024 C 
ATOM     21  CB  PRO A   2     -22.987  10.637  -7.425  0.00  0.00    +0.031 C 
ATOM     22  CA  PRO A   2     -23.471  11.643  -8.483  0.00  0.00    +0.152 C 
ATOM     23  O   ILE A   1     -23.418  12.924 -10.881  0.00  0.00    -0.273 OA
BRANCH  17  24
ATOM     24  CA  ILE A   1     -21.045  13.099 -11.053  0.00  0.00    +0.145 C 
BRANCH  24  25
ATOM     25  CB  ILE A   1     -20.740  14.612 -10.873  0.00  0.00    +0.025 C 
ATOM     26  CG2 ILE A   1     -21.914  15.482 -11.318  0.00  0.00    +0.002 C 
BRANCH  25  27
ATOM     27  CG1 ILE A   1     -20.323  14.918  -9.431  0.00  0.00    +0.002 C 
ATOM     28  CD1 ILE A   1     -19.756  16.308  -9.249  0.00  0.00    +0.000 C 
ENDBRANCH  25  27
ENDBRANCH  24  25
BRANCH  24  29
ATOM     29  N   ILE A   1     -21.268  12.769 -12.450  0.00  0.00    -0.238 NA
ATOM     30  H   ILE A   1     -22.193  13.009 -12.860  0.00  0.00    +0.142 HD
ENDBRANCH  24  29
ENDBRANCH  17  24
ENDBRANCH  13  22
ENDBRANCH  12  15
BRANCH  12  31
ATOM     31  CB  SER A   3     -27.006  14.578  -7.702  0.00  0.00    +0.166 C 
BRANCH  31  32
ATOM     32  OG  SER A   3     -27.616  15.542  -6.874  0.00  0.00    -0.380 OA
ATOM     33  H   SER A   3     -28.277  15.099  -6.285  0.00  0.00    +0.211 HD
ENDBRANCH  31  32
ENDBRANCH  12  31
ENDBRANCH   5  12
ENDBRANCH   1   7
BRANCH   2  34
ATOM     34  CA  PHE A   5     -22.488  13.526  -3.528  0.00  0.00    +0.153 C 
BRANCH  34  35
ATOM     35  C   PHE A   5     -22.292  12.375  -2.533  0.00  0.00    +0.244 C 
ATOM     36  O   PHE A   5     -23.128  12.178  -1.640  0.00  0.00    -0.273 OA
ATOM     37  N   PRO A   6     -21.181  11.622  -2.661  0.00  0.00    -0.272 N 
ATOM     38  CA  PRO A   6     -20.893  10.607  -1.640  0.00  0.00    +0.152 C 
ATOM     39  CB  PRO A   6     -19.468  10.164  -1.993  0.00  0.00    +0.031 C 
ATOM     40  CG  PRO A   6     -19.364  10.394  -3.470  0.00  0.00    +0.024 C 
ATOM     41  CD  PRO A   6     -20.137  11.662  -3.705  0.00  0.00    +0.094 C 
BRANCH  38  42
ATOM     42  C   PRO A   6     -20.925  11.192  -0.230  0.00  0.00    +0.241 C 
ATOM     43  N   ASP A   7     -21.346  10.389   0.743  0.00  0.00    -0.298 N 
ATOM     44  H   ASP A   7     -21.648   9.422   0.507  0.00  0.00    +0.150 HD
ATOM     45  O   PRO A   6     -20.534  12.345  -0.025  0.00  0.00    -0.273 OA
BRANCH  43  46
ATOM     46  CA  ASP A   7     -21.395  10.830   2.136  0.00  0.00    +0.148 C 
BRANCH  46  47
ATOM     47  C   ASP A   7     -20.045  11.329   2.635  0.00  0.00    +0.227 C 
ATOM     48  O   ASP A   7     -19.977  12.213   3.482  0.00  0.00    -0.286 OA
ENDBRANCH  46  47
BRANCH  46  49
ATOM     49  CB  ASP A   7     -21.871   9.691   3.037  0.00  0.00    +0.142 C 
BRANCH  49  50
ATOM     50  CG  ASP A   7     -23.357   9.424   2.918  0.00  0.00    +0.367 C 
ATOM     51  OD2 ASP A   7     -23.820   8.486   3.596  0.00  0.00    -0.246 OA
ATOM     52  OD1 ASP A   7     -24.065  10.142   2.175  0.00  0.00    -0.246 OA
ENDBRANCH  49  50
ENDBRANCH  46  49
ENDBRANCH  43  46
ENDBRANCH  38  42
ENDBRANCH  34  35
BRANCH  34  53
ATOM     53  CB  PHE A   5     -21.726  14.747  -3.011  0.00  0.00    +0.055 C 
BRANCH  53  54
ATOM     54  CG  PHE A   5     -21.548  15.855  -4.018  0.00  0.00    -0.020 A 
ATOM     55  CD2 PHE A   5     -20.775  16.962  -3.673  0.00  0.00    -0.004 A 
ATOM     56  CE2 PHE A   5     -20.581  18.004  -4.567  0.00  0.00    -0.000 A 
ATOM     57  CZ  PHE A   5     -21.171  17.962  -5.816  0.00  0.00    -0.000 A 
ATOM     58  CE1 PHE A   5     -21.951  16.871  -6.177  0.00  0.00    -0.000 A 
ATOM     59  CD1 PHE A   5     -22.137  15.821  -5.286  0.00  0.00    -0.004 A 
ENDBRANCH  53  54
ENDBRANCH  34  53
ENDBRANCH   2  34
TORSDOF 19
REMARK  Name = ../refined-set-2016/4mhy/4mhy_pocket.pdb
REMARK  148 active torsions:
REMARK  status: ('A' for Active; 'I' for Inactive)
REMARK    1  A    between atoms: _1  and  _3
REMARK    2  A    between atoms: _3  and  _4
REMARK    3  A    between atoms: _3  and  _6
REMARK    4  A    between atoms: _6  and  _7
REMARK    5  A    between atoms: _12  and  _14
REMARK    6  A    between atoms: _14  and  _15
REMARK    7  A    between atoms: _14  and  _17
REMARK    8  A    between atoms: _17  and  _18
REMARK    9  A    between atoms: _21  and  _23
REMARK   10  A    between atoms: _23  and  _24
REMARK   11  A    between atoms: _23  and  _26
REMARK   12  A    between atoms: _26  and  _27
REMARK   13  A    between atoms: _30  and  _32
REMARK   14  A    between atoms: _32  and  _33
REMARK   15  A    between atoms: _32  and  _35
REMARK   16  A    between atoms: _35  and  _36
REMARK   17  A    between atoms: _42  and  _44
REMARK   18  A    between atoms: _44  and  _45
REMARK   19  A    between atoms: _44  and  _47
REMARK   20  A    between atoms: _47  and  _48
REMARK   21  A    between atoms: _51  and  _53
REMARK   22  A    between atoms: _53  and  _54
REMARK   23  A    between atoms: _53  and  _56
REMARK   24  A    between atoms: _56  and  _57
REMARK   25  A    between atoms: _57  and  _59
REMARK   26  A    between atoms: _59  and  ZN_366
REMARK   27  A    between atoms: _60  and  _62
REMARK   28  A    between atoms: _62  and  _63
REMARK   29  A    between atoms: _62  and  _65
REMARK   30  A    between atoms: _65  and  _66
REMARK   31  A    between atoms: _68  and  _70
REMARK   32  A    between atoms: _70  and  _71
REMARK   33  A    between atoms: _70  and  _73
REMARK   34  A    between atoms: _73  and  _74
REMARK   35  A    between atoms: _74  and  _75
REMARK   36  A    between atoms: _78  and  _80
REMARK   37  A    between atoms: _80  and  _81
REMARK   38  A    between atoms: _80  and  _83
REMARK   39  A    between atoms: _83  and  _84
REMARK   40  A    between atoms: _84  and  _85
REMARK   41  A    between atoms: _85  and  _87
REMARK   42  A    between atoms: _87  and  ZN_366
REMARK   43  A    between atoms: _88  and  _90
REMARK   44  A    between atoms: _90  and  _91
REMARK   45  A    between atoms: _94  and  _96
REMARK   46  A    between atoms: _96  and  _97
REMARK   47  A    between atoms: _96  and  _99
REMARK   48  A    between atoms: _99  and  _100
REMARK   49  A    between atoms: _110  and  _112
REMARK   50  A    between atoms: _112  and  _113
REMARK   51  A    between atoms: _112  and  _115
REMARK   52  A    between atoms: _115  and  _116
REMARK   53  A    between atoms: _118  and  _120
REMARK   54  A    between atoms: _120  and  _121
REMARK   55  A    between atoms: _120  and  _123
REMARK   56  A    between atoms: _123  and  _124
REMARK   57  A    between atoms: _127  and  _129
REMARK   58  A    between atoms: _129  and  _130
REMARK   59  A    between atoms: _129  and  _132
REMARK   60  A    between atoms: _132  and  _133
REMARK   61  A    between atoms: _136  and  _138
REMARK   62  A    between atoms: _138  and  _139
REMARK   63  A    between atoms: _138  and  _141
REMARK   64  A    between atoms: _141  and  _142
REMARK   65  A    between atoms: _145  and  _147
REMARK   66  A    between atoms: _147  and  _148
REMARK   67  A    between atoms: _147  and  _150
REMARK   68  A    between atoms: _150  and  _151
REMARK   69  A    between atoms: _154  and  _156
REMARK   70  A    between atoms: _156  and  _157
REMARK   71  A    between atoms: _156  and  _159
REMARK   72  A    between atoms: _159  and  _160
REMARK   73  A    between atoms: _163  and  _165
REMARK   74  A    between atoms: _165  and  _166
REMARK   75  A    between atoms: _165  and  _168
REMARK   76  A    between atoms: _168  and  _169
REMARK   77  A    between atoms: _174  and  _175
REMARK   78  A    between atoms: _177  and  _179
REMARK   79  A    between atoms: _179  and  _180
REMARK   80  A    between atoms: _179  and  _182
REMARK   81  A    between atoms: _182  and  _183
REMARK   82  A    between atoms: _186  and  _188
REMARK   83  A    between atoms: _188  and  _189
REMARK   84  A    between atoms: _191  and  _193
REMARK   85  A    between atoms: _193  and  _194
REMARK   86  A    between atoms: _193  and  _196
REMARK   87  A    between atoms: _196  and  _197
REMARK   88  A    between atoms: _203  and  _205
REMARK   89  A    between atoms: _205  and  _206
REMARK   90  A    between atoms: _205  and  _208
REMARK   91  A    between atoms: _208  and  _209
REMARK   92  A    between atoms: _212  and  _214
REMARK   93  A    between atoms: _214  and  _215
REMARK   94  A    between atoms: _214  and  _217
REMARK   95  A    between atoms: _217  and  _218
REMARK   96  A    between atoms: _218  and  _219
REMARK   97  A    between atoms: _222  and  _224
REMARK   98  A    between atoms: _224  and  _225
REMARK   99  A    between atoms: _224  and  _227
REMARK  100  A    between atoms: _227  and  _228
REMARK  101  A    between atoms: _231  and  _233
REMARK  102  A    between atoms: _233  and  _234
REMARK  103  A    between atoms: _233  and  _236
REMARK  104  A    between atoms: _236  and  _237
REMARK  105  A    between atoms: _240  and  _242
REMARK  106  A    between atoms: _242  and  _243
REMARK  107  A    between atoms: _242  and  _245
REMARK  108  A    between atoms: _245  and  _246
REMARK  109  A    between atoms: _251  and  _253
REMARK  110  A    between atoms: _253  and  _254
REMARK  111  A    between atoms: _253  and  _256
REMARK  112  A    between atoms: _256  and  _257
REMARK  113  A    between atoms: _260  and  _262
REMARK  114  A    between atoms: _262  and  _263
REMARK  115  A    between atoms: _262  and  _265
REMARK  116  A    between atoms: _265  and  _266
REMARK  117  A    between atoms: _271  and  _273
REMARK  118  A    between atoms: _273  and  _274
REMARK  119  A    between atoms: _273  and  _276
REMARK  120  A    between atoms: _276  and  _277
REMARK  121  A    between atoms: _281  and  _282
REMARK  122  A    between atoms: _287  and  _289
REMARK  123  A    between atoms: _289  and  _290
REMARK  124  A    between atoms: _289  and  _292
REMARK  125  A    between atoms: _292  and  _293
REMARK  126  A    between atoms: _296  and  _297
REMARK  127  A    between atoms: _302  and  _304
REMARK  128  A    between atoms: _304  and  _305
REMARK  129  A    between atoms: _304  and  _307
REMARK  130  A    between atoms: _307  and  _308
REMARK  131  A    between atoms: _315  and  _316
REMARK  132  A    between atoms: _321  and  _323
REMARK  133  A    between atoms: _323  and  _324
REMARK  134  A    between atoms: _323  and  _326
REMARK  135  A    between atoms: _326  and  _327
REMARK  136  A    between atoms: _330  and  _332
REMARK  137  A    between atoms: _332  and  _333
REMARK  138  A    between atoms: _332  and  _335
REMARK  139  A    between atoms: _335  and  _336
REMARK  140  A    between atoms: _346  and  _348
REMARK  141  A    between atoms: _348  and  _349
REMARK  142  A    between atoms: _348  and  _351
REMARK  143  A    between atoms: _351  and  _352
REMARK  144  A    between atoms: _356  and  ZN_366
REMARK  145  A    between atoms: _357  and  _359
REMARK  146  A    between atoms: _359  and  _360
REMARK  147  A    between atoms: _359  and  _362
REMARK  148  A    between atoms: _362  and  _363
REMARK                            x       y       z     vdW  Elec       q    Type
REMARK                         _______ _______ _______ _____ _____    ______ ____
ROOT
ATOM      1  CA  ASP A   1     -12.846   9.936   1.481  0.00  0.00    +0.144 C 
ENDROOT
BRANCH   1   2
ATOM      2  N   ASP A   1     -12.910  10.221   2.921  0.00  0.00    -0.239 NA
ATOM      3  H   ASP A   1     -12.702  11.176   3.277  0.00  0.00    +0.142 HD
ENDBRANCH   1   2
BRANCH   1   4
ATOM      4  C   ASP A   1     -11.514   9.246   1.157  0.00  0.00    +0.225 C 
ATOM      5  O   ASP A   1     -10.567   9.856   0.620  0.00  0.00    -0.287 OA
ENDBRANCH   1   4
BRANCH   1   6
ATOM      6  CB  ASP A   1     -13.080  11.178   0.611  0.00  0.00    +0.139 C 
BRANCH   6   7
ATOM      7  CG  ASP A   1     -13.195  10.838  -0.874  0.00  0.00    +0.367 C 
ATOM      8  OD2 ASP A   1     -13.212   9.639  -1.218  0.00  0.00    -0.246 OA
ATOM      9  OD1 ASP A   1     -13.286  11.766  -1.694  0.00  0.00    -0.246 OA
ENDBRANCH   6   7
ENDBRANCH   1   6
TORSDOF 4
REMARK  Name = ../refined-set-2016/4mhy/4mhy_pocket.pdb
REMARK  148 active torsions:
REMARK  status: ('A' for Active; 'I' for Inactive)
REMARK    1  A    between atoms: _1  and  _3
REMARK    2  A    between atoms: _3  and  _4
REMARK    3  A    between atoms: _3  and  _6
REMARK    4  A    between atoms: _6  and  _7
REMARK    5  A    between atoms: _12  and  _14
REMARK    6  A    between atoms: _14  and  _15
REMARK    7  A    between atoms: _14  and  _17
REMARK    8  A    between atoms: _17  and  _18
REMARK    9  A    between atoms: _21  and  _23
REMARK   10  A    between atoms: _23  and  _24
REMARK   11  A    between atoms: _23  and  _26
REMARK   12  A    between atoms: _26  and  _27
REMARK   13  A    between atoms: _30  and  _32
REMARK   14  A    between atoms: _32  and  _33
REMARK   15  A    between atoms: _32  and  _35
REMARK   16  A    between atoms: _35  and  _36
REMARK   17  A    between atoms: _42  and  _44
REMARK   18  A    between atoms: _44  and  _45
REMARK   19  A    between atoms: _44  and  _47
REMARK   20  A    between atoms: _47  and  _48
REMARK   21  A    between atoms: _51  and  _53
REMARK   22  A    between atoms: _53  and  _54
REMARK   23  A    between atoms: _53  and  _56
REMARK   24  A    between atoms: _56  and  _57
REMARK   25  A    between atoms: _57  and  _59
REMARK   26  A    between atoms: _59  and  ZN_366
REMARK   27  A    between atoms: _60  and  _62
REMARK   28  A    between atoms: _62  and  _63
REMARK   29  A    between atoms: _62  and  _65
REMARK   30  A    between atoms: _65  and  _66
REMARK   31  A    between atoms: _68  and  _70
REMARK   32  A    between atoms: _70  and  _71
REMARK   33  A    between atoms: _70  and  _73
REMARK   34  A    between atoms: _73  and  _74
REMARK   35  A    between atoms: _74  and  _75
REMARK   36  A    between atoms: _78  and  _80
REMARK   37  A    between atoms: _80  and  _81
REMARK   38  A    between atoms: _80  and  _83
REMARK   39  A    between atoms: _83  and  _84
REMARK   40  A    between atoms: _84  and  _85
REMARK   41  A    between atoms: _85  and  _87
REMARK   42  A    between atoms: _87  and  ZN_366
REMARK   43  A    between atoms: _88  and  _90
REMARK   44  A    between atoms: _90  and  _91
REMARK   45  A    between atoms: _94  and  _96
REMARK   46  A    between atoms: _96  and  _97
REMARK   47  A    between atoms: _96  and  _99
REMARK   48  A    between atoms: _99  and  _100
REMARK   49  A    between atoms: _110  and  _112
REMARK   50  A    between atoms: _112  and  _113
REMARK   51  A    between atoms: _112  and  _115
REMARK   52  A    between atoms: _115  and  _116
REMARK   53  A    between atoms: _118  and  _120
REMARK   54  A    between atoms: _120  and  _121
REMARK   55  A    between atoms: _120  and  _123
REMARK   56  A    between atoms: _123  and  _124
REMARK   57  A    between atoms: _127  and  _129
REMARK   58  A    between atoms: _129  and  _130
REMARK   59  A    between atoms: _129  and  _132
REMARK   60  A    between atoms: _132  and  _133
REMARK   61  A    between atoms: _136  and  _138
REMARK   62  A    between atoms: _138  and  _139
REMARK   63  A    between atoms: _138  and  _141
REMARK   64  A    between atoms: _141  and  _142
REMARK   65  A    between atoms: _145  and  _147
REMARK   66  A    between atoms: _147  and  _148
REMARK   67  A    between atoms: _147  and  _150
REMARK   68  A    between atoms: _150  and  _151
REMARK   69  A    between atoms: _154  and  _156
REMARK   70  A    between atoms: _156  and  _157
REMARK   71  A    between atoms: _156  and  _159
REMARK   72  A    between atoms: _159  and  _160
REMARK   73  A    between atoms: _163  and  _165
REMARK   74  A    between atoms: _165  and  _166
REMARK   75  A    between atoms: _165  and  _168
REMARK   76  A    between atoms: _168  and  _169
REMARK   77  A    between atoms: _174  and  _175
REMARK   78  A    between atoms: _177  and  _179
REMARK   79  A    between atoms: _179  and  _180
REMARK   80  A    between atoms: _179  and  _182
REMARK   81  A    between atoms: _182  and  _183
REMARK   82  A    between atoms: _186  and  _188
REMARK   83  A    between atoms: _188  and  _189
REMARK   84  A    between atoms: _191  and  _193
REMARK   85  A    between atoms: _193  and  _194
REMARK   86  A    between atoms: _193  and  _196
REMARK   87  A    between atoms: _196  and  _197
REMARK   88  A    between atoms: _203  and  _205
REMARK   89  A    between atoms: _205  and  _206
REMARK   90  A    between atoms: _205  and  _208
REMARK   91  A    between atoms: _208  and  _209
REMARK   92  A    between atoms: _212  and  _214
REMARK   93  A    between atoms: _214  and  _215
REMARK   94  A    between atoms: _214  and  _217
REMARK   95  A    between atoms: _217  and  _218
REMARK   96  A    between atoms: _218  and  _219
REMARK   97  A    between atoms: _222  and  _224
REMARK   98  A    between atoms: _224  and  _225
REMARK   99  A    between atoms: _224  and  _227
REMARK  100  A    between atoms: _227  and  _228
REMARK  101  A    between atoms: _231  and  _233
REMARK  102  A    between atoms: _233  and  _234
REMARK  103  A    between atoms: _233  and  _236
REMARK  104  A    between atoms: _236  and  _237
REMARK  105  A    between atoms: _240  and  _242
REMARK  106  A    between atoms: _242  and  _243
REMARK  107  A    between atoms: _242  and  _245
REMARK  108  A    between atoms: _245  and  _246
REMARK  109  A    between atoms: _251  and  _253
REMARK  110  A    between atoms: _253  and  _254
REMARK  111  A    between atoms: _253  and  _256
REMARK  112  A    between atoms: _256  and  _257
REMARK  113  A    between atoms: _260  and  _262
REMARK  114  A    between atoms: _262  and  _263
REMARK  115  A    between atoms: _262  and  _265
REMARK  116  A    between atoms: _265  and  _266
REMARK  117  A    between atoms: _271  and  _273
REMARK  118  A    between atoms: _273  and  _274
REMARK  119  A    between atoms: _273  and  _276
REMARK  120  A    between atoms: _276  and  _277
REMARK  121  A    between atoms: _281  and  _282
REMARK  122  A    between atoms: _287  and  _289
REMARK  123  A    between atoms: _289  and  _290
REMARK  124  A    between atoms: _289  and  _292
REMARK  125  A    between atoms: _292  and  _293
REMARK  126  A    between atoms: _296  and  _297
REMARK  127  A    between atoms: _302  and  _304
REMARK  128  A    between atoms: _304  and  _305
REMARK  129  A    between atoms: _304  and  _307
REMARK  130  A    between atoms: _307  and  _308
REMARK  131  A    between atoms: _315  and  _316
REMARK  132  A    between atoms: _321  and  _323
REMARK  133  A    between atoms: _323  and  _324
REMARK  134  A    between atoms: _323  and  _326
REMARK  135  A    between atoms: _326  and  _327
REMARK  136  A    between atoms: _330  and  _332
REMARK  137  A    between atoms: _332  and  _333
REMARK  138  A    between atoms: _332  and  _335
REMARK  139  A    between atoms: _335  and  _336
REMARK  140  A    between atoms: _346  and  _348
REMARK  141  A    between atoms: _348  and  _349
REMARK  142  A    between atoms: _348  and  _351
REMARK  143  A    between atoms: _351  and  _352
REMARK  144  A    between atoms: _356  and  ZN_366
REMARK  145  A    between atoms: _357  and  _359
REMARK  146  A    between atoms: _359  and  _360
REMARK  147  A    between atoms: _359  and  _362
REMARK  148  A    between atoms: _362  and  _363
REMARK                            x       y       z     vdW  Elec       q    Type
REMARK                         _______ _______ _______ _____ _____    ______ ____
ROOT
ATOM      1  O   HOH     1     -12.975  14.865 -11.495  0.00  0.00    +0.000 OA
ENDROOT
TORSDOF 0
REMARK  Name = ../refined-set-2016/4mhy/4mhy_pocket.pdb
REMARK  148 active torsions:
REMARK  status: ('A' for Active; 'I' for Inactive)
REMARK    1  A    between atoms: _1  and  _3
REMARK    2  A    between atoms: _3  and  _4
REMARK    3  A    between atoms: _3  and  _6
REMARK    4  A    between atoms: _6  and  _7
REMARK    5  A    between atoms: _12  and  _14
REMARK    6  A    between atoms: _14  and  _15
REMARK    7  A    between atoms: _14  and  _17
REMARK    8  A    between atoms: _17  and  _18
REMARK    9  A    between atoms: _21  and  _23
REMARK   10  A    between atoms: _23  and  _24
REMARK   11  A    between atoms: _23  and  _26
REMARK   12  A    between atoms: _26  and  _27
REMARK   13  A    between atoms: _30  and  _32
REMARK   14  A    between atoms: _32  and  _33
REMARK   15  A    between atoms: _32  and  _35
REMARK   16  A    between atoms: _35  and  _36
REMARK   17  A    between atoms: _42  and  _44
REMARK   18  A    between atoms: _44  and  _45
REMARK   19  A    between atoms: _44  and  _47
REMARK   20  A    between atoms: _47  and  _48
REMARK   21  A    between atoms: _51  and  _53
REMARK   22  A    between atoms: _53  and  _54
REMARK   23  A    between atoms: _53  and  _56
REMARK   24  A    between atoms: _56  and  _57
REMARK   25  A    between atoms: _57  and  _59
REMARK   26  A    between atoms: _59  and  ZN_366
REMARK   27  A    between atoms: _60  and  _62
REMARK   28  A    between atoms: _62  and  _63
REMARK   29  A    between atoms: _62  and  _65
REMARK   30  A    between atoms: _65  and  _66
REMARK   31  A    between atoms: _68  and  _70
REMARK   32  A    between atoms: _70  and  _71
REMARK   33  A    between atoms: _70  and  _73
REMARK   34  A    between atoms: _73  and  _74
REMARK   35  A    between atoms: _74  and  _75
REMARK   36  A    between atoms: _78  and  _80
REMARK   37  A    between atoms: _80  and  _81
REMARK   38  A    between atoms: _80  and  _83
REMARK   39  A    between atoms: _83  and  _84
REMARK   40  A    between atoms: _84  and  _85
REMARK   41  A    between atoms: _85  and  _87
REMARK   42  A    between atoms: _87  and  ZN_366
REMARK   43  A    between atoms: _88  and  _90
REMARK   44  A    between atoms: _90  and  _91
REMARK   45  A    between atoms: _94  and  _96
REMARK   46  A    between atoms: _96  and  _97
REMARK   47  A    between atoms: _96  and  _99
REMARK   48  A    between atoms: _99  and  _100
REMARK   49  A    between atoms: _110  and  _112
REMARK   50  A    between atoms: _112  and  _113
REMARK   51  A    between atoms: _112  and  _115
REMARK   52  A    between atoms: _115  and  _116
REMARK   53  A    between atoms: _118  and  _120
REMARK   54  A    between atoms: _120  and  _121
REMARK   55  A    between atoms: _120  and  _123
REMARK   56  A    between atoms: _123  and  _124
REMARK   57  A    between atoms: _127  and  _129
REMARK   58  A    between atoms: _129  and  _130
REMARK   59  A    between atoms: _129  and  _132
REMARK   60  A    between atoms: _132  and  _133
REMARK   61  A    between atoms: _136  and  _138
REMARK   62  A    between atoms: _138  and  _139
REMARK   63  A    between atoms: _138  and  _141
REMARK   64  A    between atoms: _141  and  _142
REMARK   65  A    between atoms: _145  and  _147
REMARK   66  A    between atoms: _147  and  _148
REMARK   67  A    between atoms: _147  and  _150
REMARK   68  A    between atoms: _150  and  _151
REMARK   69  A    between atoms: _154  and  _156
REMARK   70  A    between atoms: _156  and  _157
REMARK   71  A    between atoms: _156  and  _159
REMARK   72  A    between atoms: _159  and  _160
REMARK   73  A    between atoms: _163  and  _165
REMARK   74  A    between atoms: _165  and  _166
REMARK   75  A    between atoms: _165  and  _168
REMARK   76  A    between atoms: _168  and  _169
REMARK   77  A    between atoms: _174  and  _175
REMARK   78  A    between atoms: _177  and  _179
REMARK   79  A    between atoms: _179  and  _180
REMARK   80  A    between atoms: _179  and  _182
REMARK   81  A    between atoms: _182  and  _183
REMARK   82  A    between atoms: _186  and  _188
REMARK   83  A    between atoms: _188  and  _189
REMARK   84  A    between atoms: _191  and  _193
REMARK   85  A    between atoms: _193  and  _194
REMARK   86  A    between atoms: _193  and  _196
REMARK   87  A    between atoms: _196  and  _197
REMARK   88  A    between atoms: _203  and  _205
REMARK   89  A    between atoms: _205  and  _206
REMARK   90  A    between atoms: _205  and  _208
REMARK   91  A    between atoms: _208  and  _209
REMARK   92  A    between atoms: _212  and  _214
REMARK   93  A    between atoms: _214  and  _215
REMARK   94  A    between atoms: _214  and  _217
REMARK   95  A    between atoms: _217  and  _218
REMARK   96  A    between atoms: _218  and  _219
REMARK   97  A    between atoms: _222  and  _224
REMARK   98  A    between atoms: _224  and  _225
REMARK   99  A    between atoms: _224  and  _227
REMARK  100  A    between atoms: _227  and  _228
REMARK  101  A    between atoms: _231  and  _233
REMARK  102  A    between atoms: _233  and  _234
REMARK  103  A    between atoms: _233  and  _236
REMARK  104  A    between atoms: _236  and  _237
REMARK  105  A    between atoms: _240  and  _242
REMARK  106  A    between atoms: _242  and  _243
REMARK  107  A    between atoms: _242  and  _245
REMARK  108  A    between atoms: _245  and  _246
REMARK  109  A    between atoms: _251  and  _253
REMARK  110  A    between atoms: _253  and  _254
REMARK  111  A    between atoms: _253  and  _256
REMARK  112  A    between atoms: _256  and  _257
REMARK  113  A    between atoms: _260  and  _262
REMARK  114  A    between atoms: _262  and  _263
REMARK  115  A    between atoms: _262  and  _265
REMARK  116  A    between atoms: _265  and  _266
REMARK  117  A    between atoms: _271  and  _273
REMARK  118  A    between atoms: _273  and  _274
REMARK  119  A    between atoms: _273  and  _276
REMARK  120  A    between atoms: _276  and  _277
REMARK  121  A    between atoms: _281  and  _282
REMARK  122  A    between atoms: _287  and  _289
REMARK  123  A    between atoms: _289  and  _290
REMARK  124  A    between atoms: _289  and  _292
REMARK  125  A    between atoms: _292  and  _293
REMARK  126  A    between atoms: _296  and  _297
REMARK  127  A    between atoms: _302  and  _304
REMARK  128  A    between atoms: _304  and  _305
REMARK  129  A    between atoms: _304  and  _307
REMARK  130  A    between atoms: _307  and  _308
REMARK  131  A    between atoms: _315  and  _316
REMARK  132  A    between atoms: _321  and  _323
REMARK  133  A    between atoms: _323  and  _324
REMARK  134  A    between atoms: _323  and  _326
REMARK  135  A    between atoms: _326  and  _327
REMARK  136  A    between atoms: _330  and  _332
REMARK  137  A    between atoms: _332  and  _333
REMARK  138  A    between atoms: _332  and  _335
REMARK  139  A    between atoms: _335  and  _336
REMARK  140  A    between atoms: _346  and  _348
REMARK  141  A    between atoms: _348  and  _349
REMARK  142  A    between atoms: _348  and  _351
REMARK  143  A    between atoms: _351  and  _352
REMARK  144  A    between atoms: _356  and  ZN_366
REMARK  145  A    between atoms: _357  and  _359
REMARK  146  A    between atoms: _359  and  _360
REMARK  147  A    between atoms: _359  and  _362
REMARK  148  A    between atoms: _362  and  _363
REMARK                            x       y       z     vdW  Elec       q    Type
REMARK                         _______ _______ _______ _____ _____    ______ ____
ROOT
ATOM      1  O   HOH     1     -14.462  14.182  -1.553  0.00  0.00    +0.000 OA
ENDROOT
TORSDOF 0
REMARK  Name = ../refined-set-2016/4mhy/4mhy_pocket.pdb
REMARK  148 active torsions:
REMARK  status: ('A' for Active; 'I' for Inactive)
REMARK    1  A    between atoms: _1  and  _3
REMARK    2  A    between atoms: _3  and  _4
REMARK    3  A    between atoms: _3  and  _6
REMARK    4  A    between atoms: _6  and  _7
REMARK    5  A    between atoms: _12  and  _14
REMARK    6  A    between atoms: _14  and  _15
REMARK    7  A    between atoms: _14  and  _17
REMARK    8  A    between atoms: _17  and  _18
REMARK    9  A    between atoms: _21  and  _23
REMARK   10  A    between atoms: _23  and  _24
REMARK   11  A    between atoms: _23  and  _26
REMARK   12  A    between atoms: _26  and  _27
REMARK   13  A    between atoms: _30  and  _32
REMARK   14  A    between atoms: _32  and  _33
REMARK   15  A    between atoms: _32  and  _35
REMARK   16  A    between atoms: _35  and  _36
REMARK   17  A    between atoms: _42  and  _44
REMARK   18  A    between atoms: _44  and  _45
REMARK   19  A    between atoms: _44  and  _47
REMARK   20  A    between atoms: _47  and  _48
REMARK   21  A    between atoms: _51  and  _53
REMARK   22  A    between atoms: _53  and  _54
REMARK   23  A    between atoms: _53  and  _56
REMARK   24  A    between atoms: _56  and  _57
REMARK   25  A    between atoms: _57  and  _59
REMARK   26  A    between atoms: _59  and  ZN_366
REMARK   27  A    between atoms: _60  and  _62
REMARK   28  A    between atoms: _62  and  _63
REMARK   29  A    between atoms: _62  and  _65
REMARK   30  A    between atoms: _65  and  _66
REMARK   31  A    between atoms: _68  and  _70
REMARK   32  A    between atoms: _70  and  _71
REMARK   33  A    between atoms: _70  and  _73
REMARK   34  A    between atoms: _73  and  _74
REMARK   35  A    between atoms: _74  and  _75
REMARK   36  A    between atoms: _78  and  _80
REMARK   37  A    between atoms: _80  and  _81
REMARK   38  A    between atoms: _80  and  _83
REMARK   39  A    between atoms: _83  and  _84
REMARK   40  A    between atoms: _84  and  _85
REMARK   41  A    between atoms: _85  and  _87
REMARK   42  A    between atoms: _87  and  ZN_366
REMARK   43  A    between atoms: _88  and  _90
REMARK   44  A    between atoms: _90  and  _91
REMARK   45  A    between atoms: _94  and  _96
REMARK   46  A    between atoms: _96  and  _97
REMARK   47  A    between atoms: _96  and  _99
REMARK   48  A    between atoms: _99  and  _100
REMARK   49  A    between atoms: _110  and  _112
REMARK   50  A    between atoms: _112  and  _113
REMARK   51  A    between atoms: _112  and  _115
REMARK   52  A    between atoms: _115  and  _116
REMARK   53  A    between atoms: _118  and  _120
REMARK   54  A    between atoms: _120  and  _121
REMARK   55  A    between atoms: _120  and  _123
REMARK   56  A    between atoms: _123  and  _124
REMARK   57  A    between atoms: _127  and  _129
REMARK   58  A    between atoms: _129  and  _130
REMARK   59  A    between atoms: _129  and  _132
REMARK   60  A    between atoms: _132  and  _133
REMARK   61  A    between atoms: _136  and  _138
REMARK   62  A    between atoms: _138  and  _139
REMARK   63  A    between atoms: _138  and  _141
REMARK   64  A    between atoms: _141  and  _142
REMARK   65  A    between atoms: _145  and  _147
REMARK   66  A    between atoms: _147  and  _148
REMARK   67  A    between atoms: _147  and  _150
REMARK   68  A    between atoms: _150  and  _151
REMARK   69  A    between atoms: _154  and  _156
REMARK   70  A    between atoms: _156  and  _157
REMARK   71  A    between atoms: _156  and  _159
REMARK   72  A    between atoms: _159  and  _160
REMARK   73  A    between atoms: _163  and  _165
REMARK   74  A    between atoms: _165  and  _166
REMARK   75  A    between atoms: _165  and  _168
REMARK   76  A    between atoms: _168  and  _169
REMARK   77  A    between atoms: _174  and  _175
REMARK   78  A    between atoms: _177  and  _179
REMARK   79  A    between atoms: _179  and  _180
REMARK   80  A    between atoms: _179  and  _182
REMARK   81  A    between atoms: _182  and  _183
REMARK   82  A    between atoms: _186  and  _188
REMARK   83  A    between atoms: _188  and  _189
REMARK   84  A    between atoms: _191  and  _193
REMARK   85  A    between atoms: _193  and  _194
REMARK   86  A    between atoms: _193  and  _196
REMARK   87  A    between atoms: _196  and  _197
REMARK   88  A    between atoms: _203  and  _205
REMARK   89  A    between atoms: _205  and  _206
REMARK   90  A    between atoms: _205  and  _208
REMARK   91  A    between atoms: _208  and  _209
REMARK   92  A    between atoms: _212  and  _214
REMARK   93  A    between atoms: _214  and  _215
REMARK   94  A    between atoms: _214  and  _217
REMARK   95  A    between atoms: _217  and  _218
REMARK   96  A    between atoms: _218  and  _219
REMARK   97  A    between atoms: _222  and  _224
REMARK   98  A    between atoms: _224  and  _225
REMARK   99  A    between atoms: _224  and  _227
REMARK  100  A    between atoms: _227  and  _228
REMARK  101  A    between atoms: _231  and  _233
REMARK  102  A    between atoms: _233  and  _234
REMARK  103  A    between atoms: _233  and  _236
REMARK  104  A    between atoms: _236  and  _237
REMARK  105  A    between atoms: _240  and  _242
REMARK  106  A    between atoms: _242  and  _243
REMARK  107  A    between atoms: _242  and  _245
REMARK  108  A    between atoms: _245  and  _246
REMARK  109  A    between atoms: _251  and  _253
REMARK  110  A    between atoms: _253  and  _254
REMARK  111  A    between atoms: _253  and  _256
REMARK  112  A    between atoms: _256  and  _257
REMARK  113  A    between atoms: _260  and  _262
REMARK  114  A    between atoms: _262  and  _263
REMARK  115  A    between atoms: _262  and  _265
REMARK  116  A    between atoms: _265  and  _266
REMARK  117  A    between atoms: _271  and  _273
REMARK  118  A    between atoms: _273  and  _274
REMARK  119  A    between atoms: _273  and  _276
REMARK  120  A    between atoms: _276  and  _277
REMARK  121  A    between atoms: _281  and  _282
REMARK  122  A    between atoms: _287  and  _289
REMARK  123  A    between atoms: _289  and  _290
REMARK  124  A    between atoms: _289  and  _292
REMARK  125  A    between atoms: _292  and  _293
REMARK  126  A    between atoms: _296  and  _297
REMARK  127  A    between atoms: _302  and  _304
REMARK  128  A    between atoms: _304  and  _305
REMARK  129  A    between atoms: _304  and  _307
REMARK  130  A    between atoms: _307  and  _308
REMARK  131  A    between atoms: _315  and  _316
REMARK  132  A    between atoms: _321  and  _323
REMARK  133  A    between atoms: _323  and  _324
REMARK  134  A    between atoms: _323  and  _326
REMARK  135  A    between atoms: _326  and  _327
REMARK  136  A    between atoms: _330  and  _332
REMARK  137  A    between atoms: _332  and  _333
REMARK  138  A    between atoms: _332  and  _335
REMARK  139  A    between atoms: _335  and  _336
REMARK  140  A    between atoms: _346  and  _348
REMARK  141  A    between atoms: _348  and  _349
REMARK  142  A    between atoms: _348  and  _351
REMARK  143  A    between atoms: _351  and  _352
REMARK  144  A    between atoms: _356  and  ZN_366
REMARK  145  A    between atoms: _357  and  _359
REMARK  146  A    between atoms: _359  and  _360
REMARK  147  A    between atoms: _359  and  _362
REMARK  148  A    between atoms: _362  and  _363
REMARK                            x       y       z     vdW  Elec       q    Type
REMARK                         _______ _______ _______ _____ _____    ______ ____
ROOT
ATOM      1  O   HOH     1     -13.360  17.537 -12.120  0.00  0.00    +0.000 OA
ENDROOT
TORSDOF 0
REMARK  Name = ../refined-set-2016/4mhy/4mhy_pocket.pdb
REMARK  148 active torsions:
REMARK  status: ('A' for Active; 'I' for Inactive)
REMARK    1  A    between atoms: _1  and  _3
REMARK    2  A    between atoms: _3  and  _4
REMARK    3  A    between atoms: _3  and  _6
REMARK    4  A    between atoms: _6  and  _7
REMARK    5  A    between atoms: _12  and  _14
REMARK    6  A    between atoms: _14  and  _15
REMARK    7  A    between atoms: _14  and  _17
REMARK    8  A    between atoms: _17  and  _18
REMARK    9  A    between atoms: _21  and  _23
REMARK   10  A    between atoms: _23  and  _24
REMARK   11  A    between atoms: _23  and  _26
REMARK   12  A    between atoms: _26  and  _27
REMARK   13  A    between atoms: _30  and  _32
REMARK   14  A    between atoms: _32  and  _33
REMARK   15  A    between atoms: _32  and  _35
REMARK   16  A    between atoms: _35  and  _36
REMARK   17  A    between atoms: _42  and  _44
REMARK   18  A    between atoms: _44  and  _45
REMARK   19  A    between atoms: _44  and  _47
REMARK   20  A    between atoms: _47  and  _48
REMARK   21  A    between atoms: _51  and  _53
REMARK   22  A    between atoms: _53  and  _54
REMARK   23  A    between atoms: _53  and  _56
REMARK   24  A    between atoms: _56  and  _57
REMARK   25  A    between atoms: _57  and  _59
REMARK   26  A    between atoms: _59  and  ZN_366
REMARK   27  A    between atoms: _60  and  _62
REMARK   28  A    between atoms: _62  and  _63
REMARK   29  A    between atoms: _62  and  _65
REMARK   30  A    between atoms: _65  and  _66
REMARK   31  A    between atoms: _68  and  _70
REMARK   32  A    between atoms: _70  and  _71
REMARK   33  A    between atoms: _70  and  _73
REMARK   34  A    between atoms: _73  and  _74
REMARK   35  A    between atoms: _74  and  _75
REMARK   36  A    between atoms: _78  and  _80
REMARK   37  A    between atoms: _80  and  _81
REMARK   38  A    between atoms: _80  and  _83
REMARK   39  A    between atoms: _83  and  _84
REMARK   40  A    between atoms: _84  and  _85
REMARK   41  A    between atoms: _85  and  _87
REMARK   42  A    between atoms: _87  and  ZN_366
REMARK   43  A    between atoms: _88  and  _90
REMARK   44  A    between atoms: _90  and  _91
REMARK   45  A    between atoms: _94  and  _96
REMARK   46  A    between atoms: _96  and  _97
REMARK   47  A    between atoms: _96  and  _99
REMARK   48  A    between atoms: _99  and  _100
REMARK   49  A    between atoms: _110  and  _112
REMARK   50  A    between atoms: _112  and  _113
REMARK   51  A    between atoms: _112  and  _115
REMARK   52  A    between atoms: _115  and  _116
REMARK   53  A    between atoms: _118  and  _120
REMARK   54  A    between atoms: _120  and  _121
REMARK   55  A    between atoms: _120  and  _123
REMARK   56  A    between atoms: _123  and  _124
REMARK   57  A    between atoms: _127  and  _129
REMARK   58  A    between atoms: _129  and  _130
REMARK   59  A    between atoms: _129  and  _132
REMARK   60  A    between atoms: _132  and  _133
REMARK   61  A    between atoms: _136  and  _138
REMARK   62  A    between atoms: _138  and  _139
REMARK   63  A    between atoms: _138  and  _141
REMARK   64  A    between atoms: _141  and  _142
REMARK   65  A    between atoms: _145  and  _147
REMARK   66  A    between atoms: _147  and  _148
REMARK   67  A    between atoms: _147  and  _150
REMARK   68  A    between atoms: _150  and  _151
REMARK   69  A    between atoms: _154  and  _156
REMARK   70  A    between atoms: _156  and  _157
REMARK   71  A    between atoms: _156  and  _159
REMARK   72  A    between atoms: _159  and  _160
REMARK   73  A    between atoms: _163  and  _165
REMARK   74  A    between atoms: _165  and  _166
REMARK   75  A    between atoms: _165  and  _168
REMARK   76  A    between atoms: _168  and  _169
REMARK   77  A    between atoms: _174  and  _175
REMARK   78  A    between atoms: _177  and  _179
REMARK   79  A    between atoms: _179  and  _180
REMARK   80  A    between atoms: _179  and  _182
REMARK   81  A    between atoms: _182  and  _183
REMARK   82  A    between atoms: _186  and  _188
REMARK   83  A    between atoms: _188  and  _189
REMARK   84  A    between atoms: _191  and  _193
REMARK   85  A    between atoms: _193  and  _194
REMARK   86  A    between atoms: _193  and  _196
REMARK   87  A    between atoms: _196  and  _197
REMARK   88  A    between atoms: _203  and  _205
REMARK   89  A    between atoms: _205  and  _206
REMARK   90  A    between atoms: _205  and  _208
REMARK   91  A    between atoms: _208  and  _209
REMARK   92  A    between atoms: _212  and  _214
REMARK   93  A    between atoms: _214  and  _215
REMARK   94  A    between atoms: _214  and  _217
REMARK   95  A    between atoms: _217  and  _218
REMARK   96  A    between atoms: _218  and  _219
REMARK   97  A    between atoms: _222  and  _224
REMARK   98  A    between atoms: _224  and  _225
REMARK   99  A    between atoms: _224  and  _227
REMARK  100  A    between atoms: _227  and  _228
REMARK  101  A    between atoms: _231  and  _233
REMARK  102  A    between atoms: _233  and  _234
REMARK  103  A    between atoms: _233  and  _236
REMARK  104  A    between atoms: _236  and  _237
REMARK  105  A    between atoms: _240  and  _242
REMARK  106  A    between atoms: _242  and  _243
REMARK  107  A    between atoms: _242  and  _245
REMARK  108  A    between atoms: _245  and  _246
REMARK  109  A    between atoms: _251  and  _253
REMARK  110  A    between atoms: _253  and  _254
REMARK  111  A    between atoms: _253  and  _256
REMARK  112  A    between atoms: _256  and  _257
REMARK  113  A    between atoms: _260  and  _262
REMARK  114  A    between atoms: _262  and  _263
REMARK  115  A    between atoms: _262  and  _265
REMARK  116  A    between atoms: _265  and  _266
REMARK  117  A    between atoms: _271  and  _273
REMARK  118  A    between atoms: _273  and  _274
REMARK  119  A    between atoms: _273  and  _276
REMARK  120  A    between atoms: _276  and  _277
REMARK  121  A    between atoms: _281  and  _282
REMARK  122  A    between atoms: _287  and  _289
REMARK  123  A    between atoms: _289  and  _290
REMARK  124  A    between atoms: _289  and  _292
REMARK  125  A    between atoms: _292  and  _293
REMARK  126  A    between atoms: _296  and  _297
REMARK  127  A    between atoms: _302  and  _304
REMARK  128  A    between atoms: _304  and  _305
REMARK  129  A    between atoms: _304  and  _307
REMARK  130  A    between atoms: _307  and  _308
REMARK  131  A    between atoms: _315  and  _316
REMARK  132  A    between atoms: _321  and  _323
REMARK  133  A    between atoms: _323  and  _324
REMARK  134  A    between atoms: _323  and  _326
REMARK  135  A    between atoms: _326  and  _327
REMARK  136  A    between atoms: _330  and  _332
REMARK  137  A    between atoms: _332  and  _333
REMARK  138  A    between atoms: _332  and  _335
REMARK  139  A    between atoms: _335  and  _336
REMARK  140  A    between atoms: _346  and  _348
REMARK  141  A    between atoms: _348  and  _349
REMARK  142  A    between atoms: _348  and  _351
REMARK  143  A    between atoms: _351  and  _352
REMARK  144  A    between atoms: _356  and  ZN_366
REMARK  145  A    between atoms: _357  and  _359
REMARK  146  A    between atoms: _359  and  _360
REMARK  147  A    between atoms: _359  and  _362
REMARK  148  A    between atoms: _362  and  _363
REMARK                            x       y       z     vdW  Elec       q    Type
REMARK                         _______ _______ _______ _____ _____    ______ ____
ROOT
ATOM      1  O   HOH     1      -9.890  16.580  -4.066  0.00  0.00    +0.000 OA
ENDROOT
TORSDOF 0
REMARK  Name = ../refined-set-2016/4mhy/4mhy_pocket.pdb
REMARK  148 active torsions:
REMARK  status: ('A' for Active; 'I' for Inactive)
REMARK    1  A    between atoms: _1  and  _3
REMARK    2  A    between atoms: _3  and  _4
REMARK    3  A    between atoms: _3  and  _6
REMARK    4  A    between atoms: _6  and  _7
REMARK    5  A    between atoms: _12  and  _14
REMARK    6  A    between atoms: _14  and  _15
REMARK    7  A    between atoms: _14  and  _17
REMARK    8  A    between atoms: _17  and  _18
REMARK    9  A    between atoms: _21  and  _23
REMARK   10  A    between atoms: _23  and  _24
REMARK   11  A    between atoms: _23  and  _26
REMARK   12  A    between atoms: _26  and  _27
REMARK   13  A    between atoms: _30  and  _32
REMARK   14  A    between atoms: _32  and  _33
REMARK   15  A    between atoms: _32  and  _35
REMARK   16  A    between atoms: _35  and  _36
REMARK   17  A    between atoms: _42  and  _44
REMARK   18  A    between atoms: _44  and  _45
REMARK   19  A    between atoms: _44  and  _47
REMARK   20  A    between atoms: _47  and  _48
REMARK   21  A    between atoms: _51  and  _53
REMARK   22  A    between atoms: _53  and  _54
REMARK   23  A    between atoms: _53  and  _56
REMARK   24  A    between atoms: _56  and  _57
REMARK   25  A    between atoms: _57  and  _59
REMARK   26  A    between atoms: _59  and  ZN_366
REMARK   27  A    between atoms: _60  and  _62
REMARK   28  A    between atoms: _62  and  _63
REMARK   29  A    between atoms: _62  and  _65
REMARK   30  A    between atoms: _65  and  _66
REMARK   31  A    between atoms: _68  and  _70
REMARK   32  A    between atoms: _70  and  _71
REMARK   33  A    between atoms: _70  and  _73
REMARK   34  A    between atoms: _73  and  _74
REMARK   35  A    between atoms: _74  and  _75
REMARK   36  A    between atoms: _78  and  _80
REMARK   37  A    between atoms: _80  and  _81
REMARK   38  A    between atoms: _80  and  _83
REMARK   39  A    between atoms: _83  and  _84
REMARK   40  A    between atoms: _84  and  _85
REMARK   41  A    between atoms: _85  and  _87
REMARK   42  A    between atoms: _87  and  ZN_366
REMARK   43  A    between atoms: _88  and  _90
REMARK   44  A    between atoms: _90  and  _91
REMARK   45  A    between atoms: _94  and  _96
REMARK   46  A    between atoms: _96  and  _97
REMARK   47  A    between atoms: _96  and  _99
REMARK   48  A    between atoms: _99  and  _100
REMARK   49  A    between atoms: _110  and  _112
REMARK   50  A    between atoms: _112  and  _113
REMARK   51  A    between atoms: _112  and  _115
REMARK   52  A    between atoms: _115  and  _116
REMARK   53  A    between atoms: _118  and  _120
REMARK   54  A    between atoms: _120  and  _121
REMARK   55  A    between atoms: _120  and  _123
REMARK   56  A    between atoms: _123  and  _124
REMARK   57  A    between atoms: _127  and  _129
REMARK   58  A    between atoms: _129  and  _130
REMARK   59  A    between atoms: _129  and  _132
REMARK   60  A    between atoms: _132  and  _133
REMARK   61  A    between atoms: _136  and  _138
REMARK   62  A    between atoms: _138  and  _139
REMARK   63  A    between atoms: _138  and  _141
REMARK   64  A    between atoms: _141  and  _142
REMARK   65  A    between atoms: _145  and  _147
REMARK   66  A    between atoms: _147  and  _148
REMARK   67  A    between atoms: _147  and  _150
REMARK   68  A    between atoms: _150  and  _151
REMARK   69  A    between atoms: _154  and  _156
REMARK   70  A    between atoms: _156  and  _157
REMARK   71  A    between atoms: _156  and  _159
REMARK   72  A    between atoms: _159  and  _160
REMARK   73  A    between atoms: _163  and  _165
REMARK   74  A    between atoms: _165  and  _166
REMARK   75  A    between atoms: _165  and  _168
REMARK   76  A    between atoms: _168  and  _169
REMARK   77  A    between atoms: _174  and  _175
REMARK   78  A    between atoms: _177  and  _179
REMARK   79  A    between atoms: _179  and  _180
REMARK   80  A    between atoms: _179  and  _182
REMARK   81  A    between atoms: _182  and  _183
REMARK   82  A    between atoms: _186  and  _188
REMARK   83  A    between atoms: _188  and  _189
REMARK   84  A    between atoms: _191  and  _193
REMARK   85  A    between atoms: _193  and  _194
REMARK   86  A    between atoms: _193  and  _196
REMARK   87  A    between atoms: _196  and  _197
REMARK   88  A    between atoms: _203  and  _205
REMARK   89  A    between atoms: _205  and  _206
REMARK   90  A    between atoms: _205  and  _208
REMARK   91  A    between atoms: _208  and  _209
REMARK   92  A    between atoms: _212  and  _214
REMARK   93  A    between atoms: _214  and  _215
REMARK   94  A    between atoms: _214  and  _217
REMARK   95  A    between atoms: _217  and  _218
REMARK   96  A    between atoms: _218  and  _219
REMARK   97  A    between atoms: _222  and  _224
REMARK   98  A    between atoms: _224  and  _225
REMARK   99  A    between atoms: _224  and  _227
REMARK  100  A    between atoms: _227  and  _228
REMARK  101  A    between atoms: _231  and  _233
REMARK  102  A    between atoms: _233  and  _234
REMARK  103  A    between atoms: _233  and  _236
REMARK  104  A    between atoms: _236  and  _237
REMARK  105  A    between atoms: _240  and  _242
REMARK  106  A    between atoms: _242  and  _243
REMARK  107  A    between atoms: _242  and  _245
REMARK  108  A    between atoms: _245  and  _246
REMARK  109  A    between atoms: _251  and  _253
REMARK  110  A    between atoms: _253  and  _254
REMARK  111  A    between atoms: _253  and  _256
REMARK  112  A    between atoms: _256  and  _257
REMARK  113  A    between atoms: _260  and  _262
REMARK  114  A    between atoms: _262  and  _263
REMARK  115  A    between atoms: _262  and  _265
REMARK  116  A    between atoms: _265  and  _266
REMARK  117  A    between atoms: _271  and  _273
REMARK  118  A    between atoms: _273  and  _274
REMARK  119  A    between atoms: _273  and  _276
REMARK  120  A    between atoms: _276  and  _277
REMARK  121  A    between atoms: _281  and  _282
REMARK  122  A    between atoms: _287  and  _289
REMARK  123  A    between atoms: _289  and  _290
REMARK  124  A    between atoms: _289  and  _292
REMARK  125  A    between atoms: _292  and  _293
REMARK  126  A    between atoms: _296  and  _297
REMARK  127  A    between atoms: _302  and  _304
REMARK  128  A    between atoms: _304  and  _305
REMARK  129  A    between atoms: _304  and  _307
REMARK  130  A    between atoms: _307  and  _308
REMARK  131  A    between atoms: _315  and  _316
REMARK  132  A    between atoms: _321  and  _323
REMARK  133  A    between atoms: _323  and  _324
REMARK  134  A    between atoms: _323  and  _326
REMARK  135  A    between atoms: _326  and  _327
REMARK  136  A    between atoms: _330  and  _332
REMARK  137  A    between atoms: _332  and  _333
REMARK  138  A    between atoms: _332  and  _335
REMARK  139  A    between atoms: _335  and  _336
REMARK  140  A    between atoms: _346  and  _348
REMARK  141  A    between atoms: _348  and  _349
REMARK  142  A    between atoms: _348  and  _351
REMARK  143  A    between atoms: _351  and  _352
REMARK  144  A    between atoms: _356  and  ZN_366
REMARK  145  A    between atoms: _357  and  _359
REMARK  146  A    between atoms: _359  and  _360
REMARK  147  A    between atoms: _359  and  _362
REMARK  148  A    between atoms: _362  and  _363
REMARK                            x       y       z     vdW  Elec       q    Type
REMARK                         _______ _______ _______ _____ _____    ______ ____
ROOT
ATOM      1  O   HOH     1     -23.320  23.199 -14.391  0.00  0.00    +0.000 OA
ENDROOT
TORSDOF 0
REMARK  Name = ../refined-set-2016/4mhy/4mhy_pocket.pdb
REMARK  148 active torsions:
REMARK  status: ('A' for Active; 'I' for Inactive)
REMARK    1  A    between atoms: _1  and  _3
REMARK    2  A    between atoms: _3  and  _4
REMARK    3  A    between atoms: _3  and  _6
REMARK    4  A    between atoms: _6  and  _7
REMARK    5  A    between atoms: _12  and  _14
REMARK    6  A    between atoms: _14  and  _15
REMARK    7  A    between atoms: _14  and  _17
REMARK    8  A    between atoms: _17  and  _18
REMARK    9  A    between atoms: _21  and  _23
REMARK   10  A    between atoms: _23  and  _24
REMARK   11  A    between atoms: _23  and  _26
REMARK   12  A    between atoms: _26  and  _27
REMARK   13  A    between atoms: _30  and  _32
REMARK   14  A    between atoms: _32  and  _33
REMARK   15  A    between atoms: _32  and  _35
REMARK   16  A    between atoms: _35  and  _36
REMARK   17  A    between atoms: _42  and  _44
REMARK   18  A    between atoms: _44  and  _45
REMARK   19  A    between atoms: _44  and  _47
REMARK   20  A    between atoms: _47  and  _48
REMARK   21  A    between atoms: _51  and  _53
REMARK   22  A    between atoms: _53  and  _54
REMARK   23  A    between atoms: _53  and  _56
REMARK   24  A    between atoms: _56  and  _57
REMARK   25  A    between atoms: _57  and  _59
REMARK   26  A    between atoms: _59  and  ZN_366
REMARK   27  A    between atoms: _60  and  _62
REMARK   28  A    between atoms: _62  and  _63
REMARK   29  A    between atoms: _62  and  _65
REMARK   30  A    between atoms: _65  and  _66
REMARK   31  A    between atoms: _68  and  _70
REMARK   32  A    between atoms: _70  and  _71
REMARK   33  A    between atoms: _70  and  _73
REMARK   34  A    between atoms: _73  and  _74
REMARK   35  A    between atoms: _74  and  _75
REMARK   36  A    between atoms: _78  and  _80
REMARK   37  A    between atoms: _80  and  _81
REMARK   38  A    between atoms: _80  and  _83
REMARK   39  A    between atoms: _83  and  _84
REMARK   40  A    between atoms: _84  and  _85
REMARK   41  A    between atoms: _85  and  _87
REMARK   42  A    between atoms: _87  and  ZN_366
REMARK   43  A    between atoms: _88  and  _90
REMARK   44  A    between atoms: _90  and  _91
REMARK   45  A    between atoms: _94  and  _96
REMARK   46  A    between atoms: _96  and  _97
REMARK   47  A    between atoms: _96  and  _99
REMARK   48  A    between atoms: _99  and  _100
REMARK   49  A    between atoms: _110  and  _112
REMARK   50  A    between atoms: _112  and  _113
REMARK   51  A    between atoms: _112  and  _115
REMARK   52  A    between atoms: _115  and  _116
REMARK   53  A    between atoms: _118  and  _120
REMARK   54  A    between atoms: _120  and  _121
REMARK   55  A    between atoms: _120  and  _123
REMARK   56  A    between atoms: _123  and  _124
REMARK   57  A    between atoms: _127  and  _129
REMARK   58  A    between atoms: _129  and  _130
REMARK   59  A    between atoms: _129  and  _132
REMARK   60  A    between atoms: _132  and  _133
REMARK   61  A    between atoms: _136  and  _138
REMARK   62  A    between atoms: _138  and  _139
REMARK   63  A    between atoms: _138  and  _141
REMARK   64  A    between atoms: _141  and  _142
REMARK   65  A    between atoms: _145  and  _147
REMARK   66  A    between atoms: _147  and  _148
REMARK   67  A    between atoms: _147  and  _150
REMARK   68  A    between atoms: _150  and  _151
REMARK   69  A    between atoms: _154  and  _156
REMARK   70  A    between atoms: _156  and  _157
REMARK   71  A    between atoms: _156  and  _159
REMARK   72  A    between atoms: _159  and  _160
REMARK   73  A    between atoms: _163  and  _165
REMARK   74  A    between atoms: _165  and  _166
REMARK   75  A    between atoms: _165  and  _168
REMARK   76  A    between atoms: _168  and  _169
REMARK   77  A    between atoms: _174  and  _175
REMARK   78  A    between atoms: _177  and  _179
REMARK   79  A    between atoms: _179  and  _180
REMARK   80  A    between atoms: _179  and  _182
REMARK   81  A    between atoms: _182  and  _183
REMARK   82  A    between atoms: _186  and  _188
REMARK   83  A    between atoms: _188  and  _189
REMARK   84  A    between atoms: _191  and  _193
REMARK   85  A    between atoms: _193  and  _194
REMARK   86  A    between atoms: _193  and  _196
REMARK   87  A    between atoms: _196  and  _197
REMARK   88  A    between atoms: _203  and  _205
REMARK   89  A    between atoms: _205  and  _206
REMARK   90  A    between atoms: _205  and  _208
REMARK   91  A    between atoms: _208  and  _209
REMARK   92  A    between atoms: _212  and  _214
REMARK   93  A    between atoms: _214  and  _215
REMARK   94  A    between atoms: _214  and  _217
REMARK   95  A    between atoms: _217  and  _218
REMARK   96  A    between atoms: _218  and  _219
REMARK   97  A    between atoms: _222  and  _224
REMARK   98  A    between atoms: _224  and  _225
REMARK   99  A    between atoms: _224  and  _227
REMARK  100  A    between atoms: _227  and  _228
REMARK  101  A    between atoms: _231  and  _233
REMARK  102  A    between atoms: _233  and  _234
REMARK  103  A    between atoms: _233  and  _236
REMARK  104  A    between atoms: _236  and  _237
REMARK  105  A    between atoms: _240  and  _242
REMARK  106  A    between atoms: _242  and  _243
REMARK  107  A    between atoms: _242  and  _245
REMARK  108  A    between atoms: _245  and  _246
REMARK  109  A    between atoms: _251  and  _253
REMARK  110  A    between atoms: _253  and  _254
REMARK  111  A    between atoms: _253  and  _256
REMARK  112  A    between atoms: _256  and  _257
REMARK  113  A    between atoms: _260  and  _262
REMARK  114  A    between atoms: _262  and  _263
REMARK  115  A    between atoms: _262  and  _265
REMARK  116  A    between atoms: _265  and  _266
REMARK  117  A    between atoms: _271  and  _273
REMARK  118  A    between atoms: _273  and  _274
REMARK  119  A    between atoms: _273  and  _276
REMARK  120  A    between atoms: _276  and  _277
REMARK  121  A    between atoms: _281  and  _282
REMARK  122  A    between atoms: _287  and  _289
REMARK  123  A    between atoms: _289  and  _290
REMARK  124  A    between atoms: _289  and  _292
REMARK  125  A    between atoms: _292  and  _293
REMARK  126  A    between atoms: _296  and  _297
REMARK  127  A    between atoms: _302  and  _304
REMARK  128  A    between atoms: _304  and  _305
REMARK  129  A    between atoms: _304  and  _307
REMARK  130  A    between atoms: _307  and  _308
REMARK  131  A    between atoms: _315  and  _316
REMARK  132  A    between atoms: _321  and  _323
REMARK  133  A    between atoms: _323  and  _324
REMARK  134  A    between atoms: _323  and  _326
REMARK  135  A    between atoms: _326  and  _327
REMARK  136  A    between atoms: _330  and  _332
REMARK  137  A    between atoms: _332  and  _333
REMARK  138  A    between atoms: _332  and  _335
REMARK  139  A    between atoms: _335  and  _336
REMARK  140  A    between atoms: _346  and  _348
REMARK  141  A    between atoms: _348  and  _349
REMARK  142  A    between atoms: _348  and  _351
REMARK  143  A    between atoms: _351  and  _352
REMARK  144  A    between atoms: _356  and  ZN_366
REMARK  145  A    between atoms: _357  and  _359
REMARK  146  A    between atoms: _359  and  _360
REMARK  147  A    between atoms: _359  and  _362
REMARK  148  A    between atoms: _362  and  _363
REMARK                            x       y       z     vdW  Elec       q    Type
REMARK                         _______ _______ _______ _____ _____    ______ ____
ROOT
ATOM      1  O   HOH     1     -12.954  22.961  -3.240  0.00  0.00    +0.000 OA
ENDROOT
TORSDOF 0
REMARK  Name = ../refined-set-2016/4mhy/4mhy_pocket.pdb
REMARK  148 active torsions:
REMARK  status: ('A' for Active; 'I' for Inactive)
REMARK    1  A    between atoms: _1  and  _3
REMARK    2  A    between atoms: _3  and  _4
REMARK    3  A    between atoms: _3  and  _6
REMARK    4  A    between atoms: _6  and  _7
REMARK    5  A    between atoms: _12  and  _14
REMARK    6  A    between atoms: _14  and  _15
REMARK    7  A    between atoms: _14  and  _17
REMARK    8  A    between atoms: _17  and  _18
REMARK    9  A    between atoms: _21  and  _23
REMARK   10  A    between atoms: _23  and  _24
REMARK   11  A    between atoms: _23  and  _26
REMARK   12  A    between atoms: _26  and  _27
REMARK   13  A    between atoms: _30  and  _32
REMARK   14  A    between atoms: _32  and  _33
REMARK   15  A    between atoms: _32  and  _35
REMARK   16  A    between atoms: _35  and  _36
REMARK   17  A    between atoms: _42  and  _44
REMARK   18  A    between atoms: _44  and  _45
REMARK   19  A    between atoms: _44  and  _47
REMARK   20  A    between atoms: _47  and  _48
REMARK   21  A    between atoms: _51  and  _53
REMARK   22  A    between atoms: _53  and  _54
REMARK   23  A    between atoms: _53  and  _56
REMARK   24  A    between atoms: _56  and  _57
REMARK   25  A    between atoms: _57  and  _59
REMARK   26  A    between atoms: _59  and  ZN_366
REMARK   27  A    between atoms: _60  and  _62
REMARK   28  A    between atoms: _62  and  _63
REMARK   29  A    between atoms: _62  and  _65
REMARK   30  A    between atoms: _65  and  _66
REMARK   31  A    between atoms: _68  and  _70
REMARK   32  A    between atoms: _70  and  _71
REMARK   33  A    between atoms: _70  and  _73
REMARK   34  A    between atoms: _73  and  _74
REMARK   35  A    between atoms: _74  and  _75
REMARK   36  A    between atoms: _78  and  _80
REMARK   37  A    between atoms: _80  and  _81
REMARK   38  A    between atoms: _80  and  _83
REMARK   39  A    between atoms: _83  and  _84
REMARK   40  A    between atoms: _84  and  _85
REMARK   41  A    between atoms: _85  and  _87
REMARK   42  A    between atoms: _87  and  ZN_366
REMARK   43  A    between atoms: _88  and  _90
REMARK   44  A    between atoms: _90  and  _91
REMARK   45  A    between atoms: _94  and  _96
REMARK   46  A    between atoms: _96  and  _97
REMARK   47  A    between atoms: _96  and  _99
REMARK   48  A    between atoms: _99  and  _100
REMARK   49  A    between atoms: _110  and  _112
REMARK   50  A    between atoms: _112  and  _113
REMARK   51  A    between atoms: _112  and  _115
REMARK   52  A    between atoms: _115  and  _116
REMARK   53  A    between atoms: _118  and  _120
REMARK   54  A    between atoms: _120  and  _121
REMARK   55  A    between atoms: _120  and  _123
REMARK   56  A    between atoms: _123  and  _124
REMARK   57  A    between atoms: _127  and  _129
REMARK   58  A    between atoms: _129  and  _130
REMARK   59  A    between atoms: _129  and  _132
REMARK   60  A    between atoms: _132  and  _133
REMARK   61  A    between atoms: _136  and  _138
REMARK   62  A    between atoms: _138  and  _139
REMARK   63  A    between atoms: _138  and  _141
REMARK   64  A    between atoms: _141  and  _142
REMARK   65  A    between atoms: _145  and  _147
REMARK   66  A    between atoms: _147  and  _148
REMARK   67  A    between atoms: _147  and  _150
REMARK   68  A    between atoms: _150  and  _151
REMARK   69  A    between atoms: _154  and  _156
REMARK   70  A    between atoms: _156  and  _157
REMARK   71  A    between atoms: _156  and  _159
REMARK   72  A    between atoms: _159  and  _160
REMARK   73  A    between atoms: _163  and  _165
REMARK   74  A    between atoms: _165  and  _166
REMARK   75  A    between atoms: _165  and  _168
REMARK   76  A    between atoms: _168  and  _169
REMARK   77  A    between atoms: _174  and  _175
REMARK   78  A    between atoms: _177  and  _179
REMARK   79  A    between atoms: _179  and  _180
REMARK   80  A    between atoms: _179  and  _182
REMARK   81  A    between atoms: _182  and  _183
REMARK   82  A    between atoms: _186  and  _188
REMARK   83  A    between atoms: _188  and  _189
REMARK   84  A    between atoms: _191  and  _193
REMARK   85  A    between atoms: _193  and  _194
REMARK   86  A    between atoms: _193  and  _196
REMARK   87  A    between atoms: _196  and  _197
REMARK   88  A    between atoms: _203  and  _205
REMARK   89  A    between atoms: _205  and  _206
REMARK   90  A    between atoms: _205  and  _208
REMARK   91  A    between atoms: _208  and  _209
REMARK   92  A    between atoms: _212  and  _214
REMARK   93  A    between atoms: _214  and  _215
REMARK   94  A    between atoms: _214  and  _217
REMARK   95  A    between atoms: _217  and  _218
REMARK   96  A    between atoms: _218  and  _219
REMARK   97  A    between atoms: _222  and  _224
REMARK   98  A    between atoms: _224  and  _225
REMARK   99  A    between atoms: _224  and  _227
REMARK  100  A    between atoms: _227  and  _228
REMARK  101  A    between atoms: _231  and  _233
REMARK  102  A    between atoms: _233  and  _234
REMARK  103  A    between atoms: _233  and  _236
REMARK  104  A    between atoms: _236  and  _237
REMARK  105  A    between atoms: _240  and  _242
REMARK  106  A    between atoms: _242  and  _243
REMARK  107  A    between atoms: _242  and  _245
REMARK  108  A    between atoms: _245  and  _246
REMARK  109  A    between atoms: _251  and  _253
REMARK  110  A    between atoms: _253  and  _254
REMARK  111  A    between atoms: _253  and  _256
REMARK  112  A    between atoms: _256  and  _257
REMARK  113  A    between atoms: _260  and  _262
REMARK  114  A    between atoms: _262  and  _263
REMARK  115  A    between atoms: _262  and  _265
REMARK  116  A    between atoms: _265  and  _266
REMARK  117  A    between atoms: _271  and  _273
REMARK  118  A    between atoms: _273  and  _274
REMARK  119  A    between atoms: _273  and  _276
REMARK  120  A    between atoms: _276  and  _277
REMARK  121  A    between atoms: _281  and  _282
REMARK  122  A    between atoms: _287  and  _289
REMARK  123  A    between atoms: _289  and  _290
REMARK  124  A    between atoms: _289  and  _292
REMARK  125  A    between atoms: _292  and  _293
REMARK  126  A    between atoms: _296  and  _297
REMARK  127  A    between atoms: _302  and  _304
REMARK  128  A    between atoms: _304  and  _305
REMARK  129  A    between atoms: _304  and  _307
REMARK  130  A    between atoms: _307  and  _308
REMARK  131  A    between atoms: _315  and  _316
REMARK  132  A    between atoms: _321  and  _323
REMARK  133  A    between atoms: _323  and  _324
REMARK  134  A    between atoms: _323  and  _326
REMARK  135  A    between atoms: _326  and  _327
REMARK  136  A    between atoms: _330  and  _332
REMARK  137  A    between atoms: _332  and  _333
REMARK  138  A    between atoms: _332  and  _335
REMARK  139  A    between atoms: _335  and  _336
REMARK  140  A    between atoms: _346  and  _348
REMARK  141  A    between atoms: _348  and  _349
REMARK  142  A    between atoms: _348  and  _351
REMARK  143  A    between atoms: _351  and  _352
REMARK  144  A    between atoms: _356  and  ZN_366
REMARK  145  A    between atoms: _357  and  _359
REMARK  146  A    between atoms: _359  and  _360
REMARK  147  A    between atoms: _359  and  _362
REMARK  148  A    between atoms: _362  and  _363
REMARK                            x       y       z     vdW  Elec       q    Type
REMARK                         _______ _______ _______ _____ _____    ______ ____
ROOT
ATOM      1  O   HOH     1     -27.851  17.787  -8.691  0.00  0.00    +0.000 OA
ENDROOT
TORSDOF 0
REMARK  Name = ../refined-set-2016/4mhy/4mhy_pocket.pdb
REMARK  148 active torsions:
REMARK  status: ('A' for Active; 'I' for Inactive)
REMARK    1  A    between atoms: _1  and  _3
REMARK    2  A    between atoms: _3  and  _4
REMARK    3  A    between atoms: _3  and  _6
REMARK    4  A    between atoms: _6  and  _7
REMARK    5  A    between atoms: _12  and  _14
REMARK    6  A    between atoms: _14  and  _15
REMARK    7  A    between atoms: _14  and  _17
REMARK    8  A    between atoms: _17  and  _18
REMARK    9  A    between atoms: _21  and  _23
REMARK   10  A    between atoms: _23  and  _24
REMARK   11  A    between atoms: _23  and  _26
REMARK   12  A    between atoms: _26  and  _27
REMARK   13  A    between atoms: _30  and  _32
REMARK   14  A    between atoms: _32  and  _33
REMARK   15  A    between atoms: _32  and  _35
REMARK   16  A    between atoms: _35  and  _36
REMARK   17  A    between atoms: _42  and  _44
REMARK   18  A    between atoms: _44  and  _45
REMARK   19  A    between atoms: _44  and  _47
REMARK   20  A    between atoms: _47  and  _48
REMARK   21  A    between atoms: _51  and  _53
REMARK   22  A    between atoms: _53  and  _54
REMARK   23  A    between atoms: _53  and  _56
REMARK   24  A    between atoms: _56  and  _57
REMARK   25  A    between atoms: _57  and  _59
REMARK   26  A    between atoms: _59  and  ZN_366
REMARK   27  A    between atoms: _60  and  _62
REMARK   28  A    between atoms: _62  and  _63
REMARK   29  A    between atoms: _62  and  _65
REMARK   30  A    between atoms: _65  and  _66
REMARK   31  A    between atoms: _68  and  _70
REMARK   32  A    between atoms: _70  and  _71
REMARK   33  A    between atoms: _70  and  _73
REMARK   34  A    between atoms: _73  and  _74
REMARK   35  A    between atoms: _74  and  _75
REMARK   36  A    between atoms: _78  and  _80
REMARK   37  A    between atoms: _80  and  _81
REMARK   38  A    between atoms: _80  and  _83
REMARK   39  A    between atoms: _83  and  _84
REMARK   40  A    between atoms: _84  and  _85
REMARK   41  A    between atoms: _85  and  _87
REMARK   42  A    between atoms: _87  and  ZN_366
REMARK   43  A    between atoms: _88  and  _90
REMARK   44  A    between atoms: _90  and  _91
REMARK   45  A    between atoms: _94  and  _96
REMARK   46  A    between atoms: _96  and  _97
REMARK   47  A    between atoms: _96  and  _99
REMARK   48  A    between atoms: _99  and  _100
REMARK   49  A    between atoms: _110  and  _112
REMARK   50  A    between atoms: _112  and  _113
REMARK   51  A    between atoms: _112  and  _115
REMARK   52  A    between atoms: _115  and  _116
REMARK   53  A    between atoms: _118  and  _120
REMARK   54  A    between atoms: _120  and  _121
REMARK   55  A    between atoms: _120  and  _123
REMARK   56  A    between atoms: _123  and  _124
REMARK   57  A    between atoms: _127  and  _129
REMARK   58  A    between atoms: _129  and  _130
REMARK   59  A    between atoms: _129  and  _132
REMARK   60  A    between atoms: _132  and  _133
REMARK   61  A    between atoms: _136  and  _138
REMARK   62  A    between atoms: _138  and  _139
REMARK   63  A    between atoms: _138  and  _141
REMARK   64  A    between atoms: _141  and  _142
REMARK   65  A    between atoms: _145  and  _147
REMARK   66  A    between atoms: _147  and  _148
REMARK   67  A    between atoms: _147  and  _150
REMARK   68  A    between atoms: _150  and  _151
REMARK   69  A    between atoms: _154  and  _156
REMARK   70  A    between atoms: _156  and  _157
REMARK   71  A    between atoms: _156  and  _159
REMARK   72  A    between atoms: _159  and  _160
REMARK   73  A    between atoms: _163  and  _165
REMARK   74  A    between atoms: _165  and  _166
REMARK   75  A    between atoms: _165  and  _168
REMARK   76  A    between atoms: _168  and  _169
REMARK   77  A    between atoms: _174  and  _175
REMARK   78  A    between atoms: _177  and  _179
REMARK   79  A    between atoms: _179  and  _180
REMARK   80  A    between atoms: _179  and  _182
REMARK   81  A    between atoms: _182  and  _183
REMARK   82  A    between atoms: _186  and  _188
REMARK   83  A    between atoms: _188  and  _189
REMARK   84  A    between atoms: _191  and  _193
REMARK   85  A    between atoms: _193  and  _194
REMARK   86  A    between atoms: _193  and  _196
REMARK   87  A    between atoms: _196  and  _197
REMARK   88  A    between atoms: _203  and  _205
REMARK   89  A    between atoms: _205  and  _206
REMARK   90  A    between atoms: _205  and  _208
REMARK   91  A    between atoms: _208  and  _209
REMARK   92  A    between atoms: _212  and  _214
REMARK   93  A    between atoms: _214  and  _215
REMARK   94  A    between atoms: _214  and  _217
REMARK   95  A    between atoms: _217  and  _218
REMARK   96  A    between atoms: _218  and  _219
REMARK   97  A    between atoms: _222  and  _224
REMARK   98  A    between atoms: _224  and  _225
REMARK   99  A    between atoms: _224  and  _227
REMARK  100  A    between atoms: _227  and  _228
REMARK  101  A    between atoms: _231  and  _233
REMARK  102  A    between atoms: _233  and  _234
REMARK  103  A    between atoms: _233  and  _236
REMARK  104  A    between atoms: _236  and  _237
REMARK  105  A    between atoms: _240  and  _242
REMARK  106  A    between atoms: _242  and  _243
REMARK  107  A    between atoms: _242  and  _245
REMARK  108  A    between atoms: _245  and  _246
REMARK  109  A    between atoms: _251  and  _253
REMARK  110  A    between atoms: _253  and  _254
REMARK  111  A    between atoms: _253  and  _256
REMARK  112  A    between atoms: _256  and  _257
REMARK  113  A    between atoms: _260  and  _262
REMARK  114  A    between atoms: _262  and  _263
REMARK  115  A    between atoms: _262  and  _265
REMARK  116  A    between atoms: _265  and  _266
REMARK  117  A    between atoms: _271  and  _273
REMARK  118  A    between atoms: _273  and  _274
REMARK  119  A    between atoms: _273  and  _276
REMARK  120  A    between atoms: _276  and  _277
REMARK  121  A    between atoms: _281  and  _282
REMARK  122  A    between atoms: _287  and  _289
REMARK  123  A    between atoms: _289  and  _290
REMARK  124  A    between atoms: _289  and  _292
REMARK  125  A    between atoms: _292  and  _293
REMARK  126  A    between atoms: _296  and  _297
REMARK  127  A    between atoms: _302  and  _304
REMARK  128  A    between atoms: _304  and  _305
REMARK  129  A    between atoms: _304  and  _307
REMARK  130  A    between atoms: _307  and  _308
REMARK  131  A    between atoms: _315  and  _316
REMARK  132  A    between atoms: _321  and  _323
REMARK  133  A    between atoms: _323  and  _324
REMARK  134  A    between atoms: _323  and  _326
REMARK  135  A    between atoms: _326  and  _327
REMARK  136  A    between atoms: _330  and  _332
REMARK  137  A    between atoms: _332  and  _333
REMARK  138  A    between atoms: _332  and  _335
REMARK  139  A    between atoms: _335  and  _336
REMARK  140  A    between atoms: _346  and  _348
REMARK  141  A    between atoms: _348  and  _349
REMARK  142  A    between atoms: _348  and  _351
REMARK  143  A    between atoms: _351  and  _352
REMARK  144  A    between atoms: _356  and  ZN_366
REMARK  145  A    between atoms: _357  and  _359
REMARK  146  A    between atoms: _359  and  _360
REMARK  147  A    between atoms: _359  and  _362
REMARK  148  A    between atoms: _362  and  _363
REMARK                            x       y       z     vdW  Elec       q    Type
REMARK                         _______ _______ _______ _____ _____    ______ ____
ROOT
ATOM      1  O   HOH     1     -16.807  12.587  -2.601  0.00  0.00    +0.000 OA
ENDROOT
TORSDOF 0
REMARK  Name = ../refined-set-2016/4mhy/4mhy_pocket.pdb
REMARK  148 active torsions:
REMARK  status: ('A' for Active; 'I' for Inactive)
REMARK    1  A    between atoms: _1  and  _3
REMARK    2  A    between atoms: _3  and  _4
REMARK    3  A    between atoms: _3  and  _6
REMARK    4  A    between atoms: _6  and  _7
REMARK    5  A    between atoms: _12  and  _14
REMARK    6  A    between atoms: _14  and  _15
REMARK    7  A    between atoms: _14  and  _17
REMARK    8  A    between atoms: _17  and  _18
REMARK    9  A    between atoms: _21  and  _23
REMARK   10  A    between atoms: _23  and  _24
REMARK   11  A    between atoms: _23  and  _26
REMARK   12  A    between atoms: _26  and  _27
REMARK   13  A    between atoms: _30  and  _32
REMARK   14  A    between atoms: _32  and  _33
REMARK   15  A    between atoms: _32  and  _35
REMARK   16  A    between atoms: _35  and  _36
REMARK   17  A    between atoms: _42  and  _44
REMARK   18  A    between atoms: _44  and  _45
REMARK   19  A    between atoms: _44  and  _47
REMARK   20  A    between atoms: _47  and  _48
REMARK   21  A    between atoms: _51  and  _53
REMARK   22  A    between atoms: _53  and  _54
REMARK   23  A    between atoms: _53  and  _56
REMARK   24  A    between atoms: _56  and  _57
REMARK   25  A    between atoms: _57  and  _59
REMARK   26  A    between atoms: _59  and  ZN_366
REMARK   27  A    between atoms: _60  and  _62
REMARK   28  A    between atoms: _62  and  _63
REMARK   29  A    between atoms: _62  and  _65
REMARK   30  A    between atoms: _65  and  _66
REMARK   31  A    between atoms: _68  and  _70
REMARK   32  A    between atoms: _70  and  _71
REMARK   33  A    between atoms: _70  and  _73
REMARK   34  A    between atoms: _73  and  _74
REMARK   35  A    between atoms: _74  and  _75
REMARK   36  A    between atoms: _78  and  _80
REMARK   37  A    between atoms: _80  and  _81
REMARK   38  A    between atoms: _80  and  _83
REMARK   39  A    between atoms: _83  and  _84
REMARK   40  A    between atoms: _84  and  _85
REMARK   41  A    between atoms: _85  and  _87
REMARK   42  A    between atoms: _87  and  ZN_366
REMARK   43  A    between atoms: _88  and  _90
REMARK   44  A    between atoms: _90  and  _91
REMARK   45  A    between atoms: _94  and  _96
REMARK   46  A    between atoms: _96  and  _97
REMARK   47  A    between atoms: _96  and  _99
REMARK   48  A    between atoms: _99  and  _100
REMARK   49  A    between atoms: _110  and  _112
REMARK   50  A    between atoms: _112  and  _113
REMARK   51  A    between atoms: _112  and  _115
REMARK   52  A    between atoms: _115  and  _116
REMARK   53  A    between atoms: _118  and  _120
REMARK   54  A    between atoms: _120  and  _121
REMARK   55  A    between atoms: _120  and  _123
REMARK   56  A    between atoms: _123  and  _124
REMARK   57  A    between atoms: _127  and  _129
REMARK   58  A    between atoms: _129  and  _130
REMARK   59  A    between atoms: _129  and  _132
REMARK   60  A    between atoms: _132  and  _133
REMARK   61  A    between atoms: _136  and  _138
REMARK   62  A    between atoms: _138  and  _139
REMARK   63  A    between atoms: _138  and  _141
REMARK   64  A    between atoms: _141  and  _142
REMARK   65  A    between atoms: _145  and  _147
REMARK   66  A    between atoms: _147  and  _148
REMARK   67  A    between atoms: _147  and  _150
REMARK   68  A    between atoms: _150  and  _151
REMARK   69  A    between atoms: _154  and  _156
REMARK   70  A    between atoms: _156  and  _157
REMARK   71  A    between atoms: _156  and  _159
REMARK   72  A    between atoms: _159  and  _160
REMARK   73  A    between atoms: _163  and  _165
REMARK   74  A    between atoms: _165  and  _166
REMARK   75  A    between atoms: _165  and  _168
REMARK   76  A    between atoms: _168  and  _169
REMARK   77  A    between atoms: _174  and  _175
REMARK   78  A    between atoms: _177  and  _179
REMARK   79  A    between atoms: _179  and  _180
REMARK   80  A    between atoms: _179  and  _182
REMARK   81  A    between atoms: _182  and  _183
REMARK   82  A    between atoms: _186  and  _188
REMARK   83  A    between atoms: _188  and  _189
REMARK   84  A    between atoms: _191  and  _193
REMARK   85  A    between atoms: _193  and  _194
REMARK   86  A    between atoms: _193  and  _196
REMARK   87  A    between atoms: _196  and  _197
REMARK   88  A    between atoms: _203  and  _205
REMARK   89  A    between atoms: _205  and  _206
REMARK   90  A    between atoms: _205  and  _208
REMARK   91  A    between atoms: _208  and  _209
REMARK   92  A    between atoms: _212  and  _214
REMARK   93  A    between atoms: _214  and  _215
REMARK   94  A    between atoms: _214  and  _217
REMARK   95  A    between atoms: _217  and  _218
REMARK   96  A    between atoms: _218  and  _219
REMARK   97  A    between atoms: _222  and  _224
REMARK   98  A    between atoms: _224  and  _225
REMARK   99  A    between atoms: _224  and  _227
REMARK  100  A    between atoms: _227  and  _228
REMARK  101  A    between atoms: _231  and  _233
REMARK  102  A    between atoms: _233  and  _234
REMARK  103  A    between atoms: _233  and  _236
REMARK  104  A    between atoms: _236  and  _237
REMARK  105  A    between atoms: _240  and  _242
REMARK  106  A    between atoms: _242  and  _243
REMARK  107  A    between atoms: _242  and  _245
REMARK  108  A    between atoms: _245  and  _246
REMARK  109  A    between atoms: _251  and  _253
REMARK  110  A    between atoms: _253  and  _254
REMARK  111  A    between atoms: _253  and  _256
REMARK  112  A    between atoms: _256  and  _257
REMARK  113  A    between atoms: _260  and  _262
REMARK  114  A    between atoms: _262  and  _263
REMARK  115  A    between atoms: _262  and  _265
REMARK  116  A    between atoms: _265  and  _266
REMARK  117  A    between atoms: _271  and  _273
REMARK  118  A    between atoms: _273  and  _274
REMARK  119  A    between atoms: _273  and  _276
REMARK  120  A    between atoms: _276  and  _277
REMARK  121  A    between atoms: _281  and  _282
REMARK  122  A    between atoms: _287  and  _289
REMARK  123  A    between atoms: _289  and  _290
REMARK  124  A    between atoms: _289  and  _292
REMARK  125  A    between atoms: _292  and  _293
REMARK  126  A    between atoms: _296  and  _297
REMARK  127  A    between atoms: _302  and  _304
REMARK  128  A    between atoms: _304  and  _305
REMARK  129  A    between atoms: _304  and  _307
REMARK  130  A    between atoms: _307  and  _308
REMARK  131  A    between atoms: _315  and  _316
REMARK  132  A    between atoms: _321  and  _323
REMARK  133  A    between atoms: _323  and  _324
REMARK  134  A    between atoms: _323  and  _326
REMARK  135  A    between atoms: _326  and  _327
REMARK  136  A    between atoms: _330  and  _332
REMARK  137  A    between atoms: _332  and  _333
REMARK  138  A    between atoms: _332  and  _335
REMARK  139  A    between atoms: _335  and  _336
REMARK  140  A    between atoms: _346  and  _348
REMARK  141  A    between atoms: _348  and  _349
REMARK  142  A    between atoms: _348  and  _351
REMARK  143  A    between atoms: _351  and  _352
REMARK  144  A    between atoms: _356  and  ZN_366
REMARK  145  A    between atoms: _357  and  _359
REMARK  146  A    between atoms: _359  and  _360
REMARK  147  A    between atoms: _359  and  _362
REMARK  148  A    between atoms: _362  and  _363
REMARK                            x       y       z     vdW  Elec       q    Type
REMARK                         _______ _______ _______ _____ _____    ______ ____
ROOT
ATOM      1  O   HOH     1     -26.134  13.229 -10.813  0.00  0.00    +0.000 OA
ENDROOT
TORSDOF 0
REMARK  Name = ../refined-set-2016/4mhy/4mhy_pocket.pdb
REMARK  148 active torsions:
REMARK  status: ('A' for Active; 'I' for Inactive)
REMARK    1  A    between atoms: _1  and  _3
REMARK    2  A    between atoms: _3  and  _4
REMARK    3  A    between atoms: _3  and  _6
REMARK    4  A    between atoms: _6  and  _7
REMARK    5  A    between atoms: _12  and  _14
REMARK    6  A    between atoms: _14  and  _15
REMARK    7  A    between atoms: _14  and  _17
REMARK    8  A    between atoms: _17  and  _18
REMARK    9  A    between atoms: _21  and  _23
REMARK   10  A    between atoms: _23  and  _24
REMARK   11  A    between atoms: _23  and  _26
REMARK   12  A    between atoms: _26  and  _27
REMARK   13  A    between atoms: _30  and  _32
REMARK   14  A    between atoms: _32  and  _33
REMARK   15  A    between atoms: _32  and  _35
REMARK   16  A    between atoms: _35  and  _36
REMARK   17  A    between atoms: _42  and  _44
REMARK   18  A    between atoms: _44  and  _45
REMARK   19  A    between atoms: _44  and  _47
REMARK   20  A    between atoms: _47  and  _48
REMARK   21  A    between atoms: _51  and  _53
REMARK   22  A    between atoms: _53  and  _54
REMARK   23  A    between atoms: _53  and  _56
REMARK   24  A    between atoms: _56  and  _57
REMARK   25  A    between atoms: _57  and  _59
REMARK   26  A    between atoms: _59  and  ZN_366
REMARK   27  A    between atoms: _60  and  _62
REMARK   28  A    between atoms: _62  and  _63
REMARK   29  A    between atoms: _62  and  _65
REMARK   30  A    between atoms: _65  and  _66
REMARK   31  A    between atoms: _68  and  _70
REMARK   32  A    between atoms: _70  and  _71
REMARK   33  A    between atoms: _70  and  _73
REMARK   34  A    between atoms: _73  and  _74
REMARK   35  A    between atoms: _74  and  _75
REMARK   36  A    between atoms: _78  and  _80
REMARK   37  A    between atoms: _80  and  _81
REMARK   38  A    between atoms: _80  and  _83
REMARK   39  A    between atoms: _83  and  _84
REMARK   40  A    between atoms: _84  and  _85
REMARK   41  A    between atoms: _85  and  _87
REMARK   42  A    between atoms: _87  and  ZN_366
REMARK   43  A    between atoms: _88  and  _90
REMARK   44  A    between atoms: _90  and  _91
REMARK   45  A    between atoms: _94  and  _96
REMARK   46  A    between atoms: _96  and  _97
REMARK   47  A    between atoms: _96  and  _99
REMARK   48  A    between atoms: _99  and  _100
REMARK   49  A    between atoms: _110  and  _112
REMARK   50  A    between atoms: _112  and  _113
REMARK   51  A    between atoms: _112  and  _115
REMARK   52  A    between atoms: _115  and  _116
REMARK   53  A    between atoms: _118  and  _120
REMARK   54  A    between atoms: _120  and  _121
REMARK   55  A    between atoms: _120  and  _123
REMARK   56  A    between atoms: _123  and  _124
REMARK   57  A    between atoms: _127  and  _129
REMARK   58  A    between atoms: _129  and  _130
REMARK   59  A    between atoms: _129  and  _132
REMARK   60  A    between atoms: _132  and  _133
REMARK   61  A    between atoms: _136  and  _138
REMARK   62  A    between atoms: _138  and  _139
REMARK   63  A    between atoms: _138  and  _141
REMARK   64  A    between atoms: _141  and  _142
REMARK   65  A    between atoms: _145  and  _147
REMARK   66  A    between atoms: _147  and  _148
REMARK   67  A    between atoms: _147  and  _150
REMARK   68  A    between atoms: _150  and  _151
REMARK   69  A    between atoms: _154  and  _156
REMARK   70  A    between atoms: _156  and  _157
REMARK   71  A    between atoms: _156  and  _159
REMARK   72  A    between atoms: _159  and  _160
REMARK   73  A    between atoms: _163  and  _165
REMARK   74  A    between atoms: _165  and  _166
REMARK   75  A    between atoms: _165  and  _168
REMARK   76  A    between atoms: _168  and  _169
REMARK   77  A    between atoms: _174  and  _175
REMARK   78  A    between atoms: _177  and  _179
REMARK   79  A    between atoms: _179  and  _180
REMARK   80  A    between atoms: _179  and  _182
REMARK   81  A    between atoms: _182  and  _183
REMARK   82  A    between atoms: _186  and  _188
REMARK   83  A    between atoms: _188  and  _189
REMARK   84  A    between atoms: _191  and  _193
REMARK   85  A    between atoms: _193  and  _194
REMARK   86  A    between atoms: _193  and  _196
REMARK   87  A    between atoms: _196  and  _197
REMARK   88  A    between atoms: _203  and  _205
REMARK   89  A    between atoms: _205  and  _206
REMARK   90  A    between atoms: _205  and  _208
REMARK   91  A    between atoms: _208  and  _209
REMARK   92  A    between atoms: _212  and  _214
REMARK   93  A    between atoms: _214  and  _215
REMARK   94  A    between atoms: _214  and  _217
REMARK   95  A    between atoms: _217  and  _218
REMARK   96  A    between atoms: _218  and  _219
REMARK   97  A    between atoms: _222  and  _224
REMARK   98  A    between atoms: _224  and  _225
REMARK   99  A    between atoms: _224  and  _227
REMARK  100  A    between atoms: _227  and  _228
REMARK  101  A    between atoms: _231  and  _233
REMARK  102  A    between atoms: _233  and  _234
REMARK  103  A    between atoms: _233  and  _236
REMARK  104  A    between atoms: _236  and  _237
REMARK  105  A    between atoms: _240  and  _242
REMARK  106  A    between atoms: _242  and  _243
REMARK  107  A    between atoms: _242  and  _245
REMARK  108  A    between atoms: _245  and  _246
REMARK  109  A    between atoms: _251  and  _253
REMARK  110  A    between atoms: _253  and  _254
REMARK  111  A    between atoms: _253  and  _256
REMARK  112  A    between atoms: _256  and  _257
REMARK  113  A    between atoms: _260  and  _262
REMARK  114  A    between atoms: _262  and  _263
REMARK  115  A    between atoms: _262  and  _265
REMARK  116  A    between atoms: _265  and  _266
REMARK  117  A    between atoms: _271  and  _273
REMARK  118  A    between atoms: _273  and  _274
REMARK  119  A    between atoms: _273  and  _276
REMARK  120  A    between atoms: _276  and  _277
REMARK  121  A    between atoms: _281  and  _282
REMARK  122  A    between atoms: _287  and  _289
REMARK  123  A    between atoms: _289  and  _290
REMARK  124  A    between atoms: _289  and  _292
REMARK  125  A    between atoms: _292  and  _293
REMARK  126  A    between atoms: _296  and  _297
REMARK  127  A    between atoms: _302  and  _304
REMARK  128  A    between atoms: _304  and  _305
REMARK  129  A    between atoms: _304  and  _307
REMARK  130  A    between atoms: _307  and  _308
REMARK  131  A    between atoms: _315  and  _316
REMARK  132  A    between atoms: _321  and  _323
REMARK  133  A    between atoms: _323  and  _324
REMARK  134  A    between atoms: _323  and  _326
REMARK  135  A    between atoms: _326  and  _327
REMARK  136  A    between atoms: _330  and  _332
REMARK  137  A    between atoms: _332  and  _333
REMARK  138  A    between atoms: _332  and  _335
REMARK  139  A    between atoms: _335  and  _336
REMARK  140  A    between atoms: _346  and  _348
REMARK  141  A    between atoms: _348  and  _349
REMARK  142  A    between atoms: _348  and  _351
REMARK  143  A    between atoms: _351  and  _352
REMARK  144  A    between atoms: _356  and  ZN_366
REMARK  145  A    between atoms: _357  and  _359
REMARK  146  A    between atoms: _359  and  _360
REMARK  147  A    between atoms: _359  and  _362
REMARK  148  A    between atoms: _362  and  _363
REMARK                            x       y       z     vdW  Elec       q    Type
REMARK                         _______ _______ _______ _____ _____    ______ ____
ROOT
ATOM      1  O   HOH     1     -19.621  15.121   3.436  0.00  0.00    +0.000 OA
ENDROOT
TORSDOF 0
REMARK  Name = ../refined-set-2016/4mhy/4mhy_pocket.pdb
REMARK  148 active torsions:
REMARK  status: ('A' for Active; 'I' for Inactive)
REMARK    1  A    between atoms: _1  and  _3
REMARK    2  A    between atoms: _3  and  _4
REMARK    3  A    between atoms: _3  and  _6
REMARK    4  A    between atoms: _6  and  _7
REMARK    5  A    between atoms: _12  and  _14
REMARK    6  A    between atoms: _14  and  _15
REMARK    7  A    between atoms: _14  and  _17
REMARK    8  A    between atoms: _17  and  _18
REMARK    9  A    between atoms: _21  and  _23
REMARK   10  A    between atoms: _23  and  _24
REMARK   11  A    between atoms: _23  and  _26
REMARK   12  A    between atoms: _26  and  _27
REMARK   13  A    between atoms: _30  and  _32
REMARK   14  A    between atoms: _32  and  _33
REMARK   15  A    between atoms: _32  and  _35
REMARK   16  A    between atoms: _35  and  _36
REMARK   17  A    between atoms: _42  and  _44
REMARK   18  A    between atoms: _44  and  _45
REMARK   19  A    between atoms: _44  and  _47
REMARK   20  A    between atoms: _47  and  _48
REMARK   21  A    between atoms: _51  and  _53
REMARK   22  A    between atoms: _53  and  _54
REMARK   23  A    between atoms: _53  and  _56
REMARK   24  A    between atoms: _56  and  _57
REMARK   25  A    between atoms: _57  and  _59
REMARK   26  A    between atoms: _59  and  ZN_366
REMARK   27  A    between atoms: _60  and  _62
REMARK   28  A    between atoms: _62  and  _63
REMARK   29  A    between atoms: _62  and  _65
REMARK   30  A    between atoms: _65  and  _66
REMARK   31  A    between atoms: _68  and  _70
REMARK   32  A    between atoms: _70  and  _71
REMARK   33  A    between atoms: _70  and  _73
REMARK   34  A    between atoms: _73  and  _74
REMARK   35  A    between atoms: _74  and  _75
REMARK   36  A    between atoms: _78  and  _80
REMARK   37  A    between atoms: _80  and  _81
REMARK   38  A    between atoms: _80  and  _83
REMARK   39  A    between atoms: _83  and  _84
REMARK   40  A    between atoms: _84  and  _85
REMARK   41  A    between atoms: _85  and  _87
REMARK   42  A    between atoms: _87  and  ZN_366
REMARK   43  A    between atoms: _88  and  _90
REMARK   44  A    between atoms: _90  and  _91
REMARK   45  A    between atoms: _94  and  _96
REMARK   46  A    between atoms: _96  and  _97
REMARK   47  A    between atoms: _96  and  _99
REMARK   48  A    between atoms: _99  and  _100
REMARK   49  A    between atoms: _110  and  _112
REMARK   50  A    between atoms: _112  and  _113
REMARK   51  A    between atoms: _112  and  _115
REMARK   52  A    between atoms: _115  and  _116
REMARK   53  A    between atoms: _118  and  _120
REMARK   54  A    between atoms: _120  and  _121
REMARK   55  A    between atoms: _120  and  _123
REMARK   56  A    between atoms: _123  and  _124
REMARK   57  A    between atoms: _127  and  _129
REMARK   58  A    between atoms: _129  and  _130
REMARK   59  A    between atoms: _129  and  _132
REMARK   60  A    between atoms: _132  and  _133
REMARK   61  A    between atoms: _136  and  _138
REMARK   62  A    between atoms: _138  and  _139
REMARK   63  A    between atoms: _138  and  _141
REMARK   64  A    between atoms: _141  and  _142
REMARK   65  A    between atoms: _145  and  _147
REMARK   66  A    between atoms: _147  and  _148
REMARK   67  A    between atoms: _147  and  _150
REMARK   68  A    between atoms: _150  and  _151
REMARK   69  A    between atoms: _154  and  _156
REMARK   70  A    between atoms: _156  and  _157
REMARK   71  A    between atoms: _156  and  _159
REMARK   72  A    between atoms: _159  and  _160
REMARK   73  A    between atoms: _163  and  _165
REMARK   74  A    between atoms: _165  and  _166
REMARK   75  A    between atoms: _165  and  _168
REMARK   76  A    between atoms: _168  and  _169
REMARK   77  A    between atoms: _174  and  _175
REMARK   78  A    between atoms: _177  and  _179
REMARK   79  A    between atoms: _179  and  _180
REMARK   80  A    between atoms: _179  and  _182
REMARK   81  A    between atoms: _182  and  _183
REMARK   82  A    between atoms: _186  and  _188
REMARK   83  A    between atoms: _188  and  _189
REMARK   84  A    between atoms: _191  and  _193
REMARK   85  A    between atoms: _193  and  _194
REMARK   86  A    between atoms: _193  and  _196
REMARK   87  A    between atoms: _196  and  _197
REMARK   88  A    between atoms: _203  and  _205
REMARK   89  A    between atoms: _205  and  _206
REMARK   90  A    between atoms: _205  and  _208
REMARK   91  A    between atoms: _208  and  _209
REMARK   92  A    between atoms: _212  and  _214
REMARK   93  A    between atoms: _214  and  _215
REMARK   94  A    between atoms: _214  and  _217
REMARK   95  A    between atoms: _217  and  _218
REMARK   96  A    between atoms: _218  and  _219
REMARK   97  A    between atoms: _222  and  _224
REMARK   98  A    between atoms: _224  and  _225
REMARK   99  A    between atoms: _224  and  _227
REMARK  100  A    between atoms: _227  and  _228
REMARK  101  A    between atoms: _231  and  _233
REMARK  102  A    between atoms: _233  and  _234
REMARK  103  A    between atoms: _233  and  _236
REMARK  104  A    between atoms: _236  and  _237
REMARK  105  A    between atoms: _240  and  _242
REMARK  106  A    between atoms: _242  and  _243
REMARK  107  A    between atoms: _242  and  _245
REMARK  108  A    between atoms: _245  and  _246
REMARK  109  A    between atoms: _251  and  _253
REMARK  110  A    between atoms: _253  and  _254
REMARK  111  A    between atoms: _253  and  _256
REMARK  112  A    between atoms: _256  and  _257
REMARK  113  A    between atoms: _260  and  _262
REMARK  114  A    between atoms: _262  and  _263
REMARK  115  A    between atoms: _262  and  _265
REMARK  116  A    between atoms: _265  and  _266
REMARK  117  A    between atoms: _271  and  _273
REMARK  118  A    between atoms: _273  and  _274
REMARK  119  A    between atoms: _273  and  _276
REMARK  120  A    between atoms: _276  and  _277
REMARK  121  A    between atoms: _281  and  _282
REMARK  122  A    between atoms: _287  and  _289
REMARK  123  A    between atoms: _289  and  _290
REMARK  124  A    between atoms: _289  and  _292
REMARK  125  A    between atoms: _292  and  _293
REMARK  126  A    between atoms: _296  and  _297
REMARK  127  A    between atoms: _302  and  _304
REMARK  128  A    between atoms: _304  and  _305
REMARK  129  A    between atoms: _304  and  _307
REMARK  130  A    between atoms: _307  and  _308
REMARK  131  A    between atoms: _315  and  _316
REMARK  132  A    between atoms: _321  and  _323
REMARK  133  A    between atoms: _323  and  _324
REMARK  134  A    between atoms: _323  and  _326
REMARK  135  A    between atoms: _326  and  _327
REMARK  136  A    between atoms: _330  and  _332
REMARK  137  A    between atoms: _332  and  _333
REMARK  138  A    between atoms: _332  and  _335
REMARK  139  A    between atoms: _335  and  _336
REMARK  140  A    between atoms: _346  and  _348
REMARK  141  A    between atoms: _348  and  _349
REMARK  142  A    between atoms: _348  and  _351
REMARK  143  A    between atoms: _351  and  _352
REMARK  144  A    between atoms: _356  and  ZN_366
REMARK  145  A    between atoms: _357  and  _359
REMARK  146  A    between atoms: _359  and  _360
REMARK  147  A    between atoms: _359  and  _362
REMARK  148  A    between atoms: _362  and  _363
REMARK                            x       y       z     vdW  Elec       q    Type
REMARK                         _______ _______ _______ _____ _____    ______ ____
ROOT
ATOM      1  O   HOH     1     -24.714  10.326  -0.526  0.00  0.00    +0.000 OA
ENDROOT
TORSDOF 0
REMARK  Name = ../refined-set-2016/4mhy/4mhy_pocket.pdb
REMARK  148 active torsions:
REMARK  status: ('A' for Active; 'I' for Inactive)
REMARK    1  A    between atoms: _1  and  _3
REMARK    2  A    between atoms: _3  and  _4
REMARK    3  A    between atoms: _3  and  _6
REMARK    4  A    between atoms: _6  and  _7
REMARK    5  A    between atoms: _12  and  _14
REMARK    6  A    between atoms: _14  and  _15
REMARK    7  A    between atoms: _14  and  _17
REMARK    8  A    between atoms: _17  and  _18
REMARK    9  A    between atoms: _21  and  _23
REMARK   10  A    between atoms: _23  and  _24
REMARK   11  A    between atoms: _23  and  _26
REMARK   12  A    between atoms: _26  and  _27
REMARK   13  A    between atoms: _30  and  _32
REMARK   14  A    between atoms: _32  and  _33
REMARK   15  A    between atoms: _32  and  _35
REMARK   16  A    between atoms: _35  and  _36
REMARK   17  A    between atoms: _42  and  _44
REMARK   18  A    between atoms: _44  and  _45
REMARK   19  A    between atoms: _44  and  _47
REMARK   20  A    between atoms: _47  and  _48
REMARK   21  A    between atoms: _51  and  _53
REMARK   22  A    between atoms: _53  and  _54
REMARK   23  A    between atoms: _53  and  _56
REMARK   24  A    between atoms: _56  and  _57
REMARK   25  A    between atoms: _57  and  _59
REMARK   26  A    between atoms: _59  and  ZN_366
REMARK   27  A    between atoms: _60  and  _62
REMARK   28  A    between atoms: _62  and  _63
REMARK   29  A    between atoms: _62  and  _65
REMARK   30  A    between atoms: _65  and  _66
REMARK   31  A    between atoms: _68  and  _70
REMARK   32  A    between atoms: _70  and  _71
REMARK   33  A    between atoms: _70  and  _73
REMARK   34  A    between atoms: _73  and  _74
REMARK   35  A    between atoms: _74  and  _75
REMARK   36  A    between atoms: _78  and  _80
REMARK   37  A    between atoms: _80  and  _81
REMARK   38  A    between atoms: _80  and  _83
REMARK   39  A    between atoms: _83  and  _84
REMARK   40  A    between atoms: _84  and  _85
REMARK   41  A    between atoms: _85  and  _87
REMARK   42  A    between atoms: _87  and  ZN_366
REMARK   43  A    between atoms: _88  and  _90
REMARK   44  A    between atoms: _90  and  _91
REMARK   45  A    between atoms: _94  and  _96
REMARK   46  A    between atoms: _96  and  _97
REMARK   47  A    between atoms: _96  and  _99
REMARK   48  A    between atoms: _99  and  _100
REMARK   49  A    between atoms: _110  and  _112
REMARK   50  A    between atoms: _112  and  _113
REMARK   51  A    between atoms: _112  and  _115
REMARK   52  A    between atoms: _115  and  _116
REMARK   53  A    between atoms: _118  and  _120
REMARK   54  A    between atoms: _120  and  _121
REMARK   55  A    between atoms: _120  and  _123
REMARK   56  A    between atoms: _123  and  _124
REMARK   57  A    between atoms: _127  and  _129
REMARK   58  A    between atoms: _129  and  _130
REMARK   59  A    between atoms: _129  and  _132
REMARK   60  A    between atoms: _132  and  _133
REMARK   61  A    between atoms: _136  and  _138
REMARK   62  A    between atoms: _138  and  _139
REMARK   63  A    between atoms: _138  and  _141
REMARK   64  A    between atoms: _141  and  _142
REMARK   65  A    between atoms: _145  and  _147
REMARK   66  A    between atoms: _147  and  _148
REMARK   67  A    between atoms: _147  and  _150
REMARK   68  A    between atoms: _150  and  _151
REMARK   69  A    between atoms: _154  and  _156
REMARK   70  A    between atoms: _156  and  _157
REMARK   71  A    between atoms: _156  and  _159
REMARK   72  A    between atoms: _159  and  _160
REMARK   73  A    between atoms: _163  and  _165
REMARK   74  A    between atoms: _165  and  _166
REMARK   75  A    between atoms: _165  and  _168
REMARK   76  A    between atoms: _168  and  _169
REMARK   77  A    between atoms: _174  and  _175
REMARK   78  A    between atoms: _177  and  _179
REMARK   79  A    between atoms: _179  and  _180
REMARK   80  A    between atoms: _179  and  _182
REMARK   81  A    between atoms: _182  and  _183
REMARK   82  A    between atoms: _186  and  _188
REMARK   83  A    between atoms: _188  and  _189
REMARK   84  A    between atoms: _191  and  _193
REMARK   85  A    between atoms: _193  and  _194
REMARK   86  A    between atoms: _193  and  _196
REMARK   87  A    between atoms: _196  and  _197
REMARK   88  A    between atoms: _203  and  _205
REMARK   89  A    between atoms: _205  and  _206
REMARK   90  A    between atoms: _205  and  _208
REMARK   91  A    between atoms: _208  and  _209
REMARK   92  A    between atoms: _212  and  _214
REMARK   93  A    between atoms: _214  and  _215
REMARK   94  A    between atoms: _214  and  _217
REMARK   95  A    between atoms: _217  and  _218
REMARK   96  A    between atoms: _218  and  _219
REMARK   97  A    between atoms: _222  and  _224
REMARK   98  A    between atoms: _224  and  _225
REMARK   99  A    between atoms: _224  and  _227
REMARK  100  A    between atoms: _227  and  _228
REMARK  101  A    between atoms: _231  and  _233
REMARK  102  A    between atoms: _233  and  _234
REMARK  103  A    between atoms: _233  and  _236
REMARK  104  A    between atoms: _236  and  _237
REMARK  105  A    between atoms: _240  and  _242
REMARK  106  A    between atoms: _242  and  _243
REMARK  107  A    between atoms: _242  and  _245
REMARK  108  A    between atoms: _245  and  _246
REMARK  109  A    between atoms: _251  and  _253
REMARK  110  A    between atoms: _253  and  _254
REMARK  111  A    between atoms: _253  and  _256
REMARK  112  A    between atoms: _256  and  _257
REMARK  113  A    between atoms: _260  and  _262
REMARK  114  A    between atoms: _262  and  _263
REMARK  115  A    between atoms: _262  and  _265
REMARK  116  A    between atoms: _265  and  _266
REMARK  117  A    between atoms: _271  and  _273
REMARK  118  A    between atoms: _273  and  _274
REMARK  119  A    between atoms: _273  and  _276
REMARK  120  A    between atoms: _276  and  _277
REMARK  121  A    between atoms: _281  and  _282
REMARK  122  A    between atoms: _287  and  _289
REMARK  123  A    between atoms: _289  and  _290
REMARK  124  A    between atoms: _289  and  _292
REMARK  125  A    between atoms: _292  and  _293
REMARK  126  A    between atoms: _296  and  _297
REMARK  127  A    between atoms: _302  and  _304
REMARK  128  A    between atoms: _304  and  _305
REMARK  129  A    between atoms: _304  and  _307
REMARK  130  A    between atoms: _307  and  _308
REMARK  131  A    between atoms: _315  and  _316
REMARK  132  A    between atoms: _321  and  _323
REMARK  133  A    between atoms: _323  and  _324
REMARK  134  A    between atoms: _323  and  _326
REMARK  135  A    between atoms: _326  and  _327
REMARK  136  A    between atoms: _330  and  _332
REMARK  137  A    between atoms: _332  and  _333
REMARK  138  A    between atoms: _332  and  _335
REMARK  139  A    between atoms: _335  and  _336
REMARK  140  A    between atoms: _346  and  _348
REMARK  141  A    between atoms: _348  and  _349
REMARK  142  A    between atoms: _348  and  _351
REMARK  143  A    between atoms: _351  and  _352
REMARK  144  A    between atoms: _356  and  ZN_366
REMARK  145  A    between atoms: _357  and  _359
REMARK  146  A    between atoms: _359  and  _360
REMARK  147  A    between atoms: _359  and  _362
REMARK  148  A    between atoms: _362  and  _363
REMARK                            x       y       z     vdW  Elec       q    Type
REMARK                         _______ _______ _______ _____ _____    ______ ____
ROOT
ATOM      1  O   HOH     1     -13.372  23.505  -0.593  0.00  0.00    +0.000 OA
ENDROOT
TORSDOF 0
REMARK  Name = ../refined-set-2016/4mhy/4mhy_pocket.pdb
REMARK  148 active torsions:
REMARK  status: ('A' for Active; 'I' for Inactive)
REMARK    1  A    between atoms: _1  and  _3
REMARK    2  A    between atoms: _3  and  _4
REMARK    3  A    between atoms: _3  and  _6
REMARK    4  A    between atoms: _6  and  _7
REMARK    5  A    between atoms: _12  and  _14
REMARK    6  A    between atoms: _14  and  _15
REMARK    7  A    between atoms: _14  and  _17
REMARK    8  A    between atoms: _17  and  _18
REMARK    9  A    between atoms: _21  and  _23
REMARK   10  A    between atoms: _23  and  _24
REMARK   11  A    between atoms: _23  and  _26
REMARK   12  A    between atoms: _26  and  _27
REMARK   13  A    between atoms: _30  and  _32
REMARK   14  A    between atoms: _32  and  _33
REMARK   15  A    between atoms: _32  and  _35
REMARK   16  A    between atoms: _35  and  _36
REMARK   17  A    between atoms: _42  and  _44
REMARK   18  A    between atoms: _44  and  _45
REMARK   19  A    between atoms: _44  and  _47
REMARK   20  A    between atoms: _47  and  _48
REMARK   21  A    between atoms: _51  and  _53
REMARK   22  A    between atoms: _53  and  _54
REMARK   23  A    between atoms: _53  and  _56
REMARK   24  A    between atoms: _56  and  _57
REMARK   25  A    between atoms: _57  and  _59
REMARK   26  A    between atoms: _59  and  ZN_366
REMARK   27  A    between atoms: _60  and  _62
REMARK   28  A    between atoms: _62  and  _63
REMARK   29  A    between atoms: _62  and  _65
REMARK   30  A    between atoms: _65  and  _66
REMARK   31  A    between atoms: _68  and  _70
REMARK   32  A    between atoms: _70  and  _71
REMARK   33  A    between atoms: _70  and  _73
REMARK   34  A    between atoms: _73  and  _74
REMARK   35  A    between atoms: _74  and  _75
REMARK   36  A    between atoms: _78  and  _80
REMARK   37  A    between atoms: _80  and  _81
REMARK   38  A    between atoms: _80  and  _83
REMARK   39  A    between atoms: _83  and  _84
REMARK   40  A    between atoms: _84  and  _85
REMARK   41  A    between atoms: _85  and  _87
REMARK   42  A    between atoms: _87  and  ZN_366
REMARK   43  A    between atoms: _88  and  _90
REMARK   44  A    between atoms: _90  and  _91
REMARK   45  A    between atoms: _94  and  _96
REMARK   46  A    between atoms: _96  and  _97
REMARK   47  A    between atoms: _96  and  _99
REMARK   48  A    between atoms: _99  and  _100
REMARK   49  A    between atoms: _110  and  _112
REMARK   50  A    between atoms: _112  and  _113
REMARK   51  A    between atoms: _112  and  _115
REMARK   52  A    between atoms: _115  and  _116
REMARK   53  A    between atoms: _118  and  _120
REMARK   54  A    between atoms: _120  and  _121
REMARK   55  A    between atoms: _120  and  _123
REMARK   56  A    between atoms: _123  and  _124
REMARK   57  A    between atoms: _127  and  _129
REMARK   58  A    between atoms: _129  and  _130
REMARK   59  A    between atoms: _129  and  _132
REMARK   60  A    between atoms: _132  and  _133
REMARK   61  A    between atoms: _136  and  _138
REMARK   62  A    between atoms: _138  and  _139
REMARK   63  A    between atoms: _138  and  _141
REMARK   64  A    between atoms: _141  and  _142
REMARK   65  A    between atoms: _145  and  _147
REMARK   66  A    between atoms: _147  and  _148
REMARK   67  A    between atoms: _147  and  _150
REMARK   68  A    between atoms: _150  and  _151
REMARK   69  A    between atoms: _154  and  _156
REMARK   70  A    between atoms: _156  and  _157
REMARK   71  A    between atoms: _156  and  _159
REMARK   72  A    between atoms: _159  and  _160
REMARK   73  A    between atoms: _163  and  _165
REMARK   74  A    between atoms: _165  and  _166
REMARK   75  A    between atoms: _165  and  _168
REMARK   76  A    between atoms: _168  and  _169
REMARK   77  A    between atoms: _174  and  _175
REMARK   78  A    between atoms: _177  and  _179
REMARK   79  A    between atoms: _179  and  _180
REMARK   80  A    between atoms: _179  and  _182
REMARK   81  A    between atoms: _182  and  _183
REMARK   82  A    between atoms: _186  and  _188
REMARK   83  A    between atoms: _188  and  _189
REMARK   84  A    between atoms: _191  and  _193
REMARK   85  A    between atoms: _193  and  _194
REMARK   86  A    between atoms: _193  and  _196
REMARK   87  A    between atoms: _196  and  _197
REMARK   88  A    between atoms: _203  and  _205
REMARK   89  A    between atoms: _205  and  _206
REMARK   90  A    between atoms: _205  and  _208
REMARK   91  A    between atoms: _208  and  _209
REMARK   92  A    between atoms: _212  and  _214
REMARK   93  A    between atoms: _214  and  _215
REMARK   94  A    between atoms: _214  and  _217
REMARK   95  A    between atoms: _217  and  _218
REMARK   96  A    between atoms: _218  and  _219
REMARK   97  A    between atoms: _222  and  _224
REMARK   98  A    between atoms: _224  and  _225
REMARK   99  A    between atoms: _224  and  _227
REMARK  100  A    between atoms: _227  and  _228
REMARK  101  A    between atoms: _231  and  _233
REMARK  102  A    between atoms: _233  and  _234
REMARK  103  A    between atoms: _233  and  _236
REMARK  104  A    between atoms: _236  and  _237
REMARK  105  A    between atoms: _240  and  _242
REMARK  106  A    between atoms: _242  and  _243
REMARK  107  A    between atoms: _242  and  _245
REMARK  108  A    between atoms: _245  and  _246
REMARK  109  A    between atoms: _251  and  _253
REMARK  110  A    between atoms: _253  and  _254
REMARK  111  A    between atoms: _253  and  _256
REMARK  112  A    between atoms: _256  and  _257
REMARK  113  A    between atoms: _260  and  _262
REMARK  114  A    between atoms: _262  and  _263
REMARK  115  A    between atoms: _262  and  _265
REMARK  116  A    between atoms: _265  and  _266
REMARK  117  A    between atoms: _271  and  _273
REMARK  118  A    between atoms: _273  and  _274
REMARK  119  A    between atoms: _273  and  _276
REMARK  120  A    between atoms: _276  and  _277
REMARK  121  A    between atoms: _281  and  _282
REMARK  122  A    between atoms: _287  and  _289
REMARK  123  A    between atoms: _289  and  _290
REMARK  124  A    between atoms: _289  and  _292
REMARK  125  A    between atoms: _292  and  _293
REMARK  126  A    between atoms: _296  and  _297
REMARK  127  A    between atoms: _302  and  _304
REMARK  128  A    between atoms: _304  and  _305
REMARK  129  A    between atoms: _304  and  _307
REMARK  130  A    between atoms: _307  and  _308
REMARK  131  A    between atoms: _315  and  _316
REMARK  132  A    between atoms: _321  and  _323
REMARK  133  A    between atoms: _323  and  _324
REMARK  134  A    between atoms: _323  and  _326
REMARK  135  A    between atoms: _326  and  _327
REMARK  136  A    between atoms: _330  and  _332
REMARK  137  A    between atoms: _332  and  _333
REMARK  138  A    between atoms: _332  and  _335
REMARK  139  A    between atoms: _335  and  _336
REMARK  140  A    between atoms: _346  and  _348
REMARK  141  A    between atoms: _348  and  _349
REMARK  142  A    between atoms: _348  and  _351
REMARK  143  A    between atoms: _351  and  _352
REMARK  144  A    between atoms: _356  and  ZN_366
REMARK  145  A    between atoms: _357  and  _359
REMARK  146  A    between atoms: _359  and  _360
REMARK  147  A    between atoms: _359  and  _362
REMARK  148  A    between atoms: _362  and  _363
REMARK                            x       y       z     vdW  Elec       q    Type
REMARK                         _______ _______ _______ _____ _____    ______ ____
ROOT
ATOM      1  O   HOH     1     -31.267  14.576  -6.143  0.00  0.00    +0.000 OA
ENDROOT
TORSDOF 0
REMARK  Name = ../refined-set-2016/4mhy/4mhy_pocket.pdb
REMARK  148 active torsions:
REMARK  status: ('A' for Active; 'I' for Inactive)
REMARK    1  A    between atoms: _1  and  _3
REMARK    2  A    between atoms: _3  and  _4
REMARK    3  A    between atoms: _3  and  _6
REMARK    4  A    between atoms: _6  and  _7
REMARK    5  A    between atoms: _12  and  _14
REMARK    6  A    between atoms: _14  and  _15
REMARK    7  A    between atoms: _14  and  _17
REMARK    8  A    between atoms: _17  and  _18
REMARK    9  A    between atoms: _21  and  _23
REMARK   10  A    between atoms: _23  and  _24
REMARK   11  A    between atoms: _23  and  _26
REMARK   12  A    between atoms: _26  and  _27
REMARK   13  A    between atoms: _30  and  _32
REMARK   14  A    between atoms: _32  and  _33
REMARK   15  A    between atoms: _32  and  _35
REMARK   16  A    between atoms: _35  and  _36
REMARK   17  A    between atoms: _42  and  _44
REMARK   18  A    between atoms: _44  and  _45
REMARK   19  A    between atoms: _44  and  _47
REMARK   20  A    between atoms: _47  and  _48
REMARK   21  A    between atoms: _51  and  _53
REMARK   22  A    between atoms: _53  and  _54
REMARK   23  A    between atoms: _53  and  _56
REMARK   24  A    between atoms: _56  and  _57
REMARK   25  A    between atoms: _57  and  _59
REMARK   26  A    between atoms: _59  and  ZN_366
REMARK   27  A    between atoms: _60  and  _62
REMARK   28  A    between atoms: _62  and  _63
REMARK   29  A    between atoms: _62  and  _65
REMARK   30  A    between atoms: _65  and  _66
REMARK   31  A    between atoms: _68  and  _70
REMARK   32  A    between atoms: _70  and  _71
REMARK   33  A    between atoms: _70  and  _73
REMARK   34  A    between atoms: _73  and  _74
REMARK   35  A    between atoms: _74  and  _75
REMARK   36  A    between atoms: _78  and  _80
REMARK   37  A    between atoms: _80  and  _81
REMARK   38  A    between atoms: _80  and  _83
REMARK   39  A    between atoms: _83  and  _84
REMARK   40  A    between atoms: _84  and  _85
REMARK   41  A    between atoms: _85  and  _87
REMARK   42  A    between atoms: _87  and  ZN_366
REMARK   43  A    between atoms: _88  and  _90
REMARK   44  A    between atoms: _90  and  _91
REMARK   45  A    between atoms: _94  and  _96
REMARK   46  A    between atoms: _96  and  _97
REMARK   47  A    between atoms: _96  and  _99
REMARK   48  A    between atoms: _99  and  _100
REMARK   49  A    between atoms: _110  and  _112
REMARK   50  A    between atoms: _112  and  _113
REMARK   51  A    between atoms: _112  and  _115
REMARK   52  A    between atoms: _115  and  _116
REMARK   53  A    between atoms: _118  and  _120
REMARK   54  A    between atoms: _120  and  _121
REMARK   55  A    between atoms: _120  and  _123
REMARK   56  A    between atoms: _123  and  _124
REMARK   57  A    between atoms: _127  and  _129
REMARK   58  A    between atoms: _129  and  _130
REMARK   59  A    between atoms: _129  and  _132
REMARK   60  A    between atoms: _132  and  _133
REMARK   61  A    between atoms: _136  and  _138
REMARK   62  A    between atoms: _138  and  _139
REMARK   63  A    between atoms: _138  and  _141
REMARK   64  A    between atoms: _141  and  _142
REMARK   65  A    between atoms: _145  and  _147
REMARK   66  A    between atoms: _147  and  _148
REMARK   67  A    between atoms: _147  and  _150
REMARK   68  A    between atoms: _150  and  _151
REMARK   69  A    between atoms: _154  and  _156
REMARK   70  A    between atoms: _156  and  _157
REMARK   71  A    between atoms: _156  and  _159
REMARK   72  A    between atoms: _159  and  _160
REMARK   73  A    between atoms: _163  and  _165
REMARK   74  A    between atoms: _165  and  _166
REMARK   75  A    between atoms: _165  and  _168
REMARK   76  A    between atoms: _168  and  _169
REMARK   77  A    between atoms: _174  and  _175
REMARK   78  A    between atoms: _177  and  _179
REMARK   79  A    between atoms: _179  and  _180
REMARK   80  A    between atoms: _179  and  _182
REMARK   81  A    between atoms: _182  and  _183
REMARK   82  A    between atoms: _186  and  _188
REMARK   83  A    between atoms: _188  and  _189
REMARK   84  A    between atoms: _191  and  _193
REMARK   85  A    between atoms: _193  and  _194
REMARK   86  A    between atoms: _193  and  _196
REMARK   87  A    between atoms: _196  and  _197
REMARK   88  A    between atoms: _203  and  _205
REMARK   89  A    between atoms: _205  and  _206
REMARK   90  A    between atoms: _205  and  _208
REMARK   91  A    between atoms: _208  and  _209
REMARK   92  A    between atoms: _212  and  _214
REMARK   93  A    between atoms: _214  and  _215
REMARK   94  A    between atoms: _214  and  _217
REMARK   95  A    between atoms: _217  and  _218
REMARK   96  A    between atoms: _218  and  _219
REMARK   97  A    between atoms: _222  and  _224
REMARK   98  A    between atoms: _224  and  _225
REMARK   99  A    between atoms: _224  and  _227
REMARK  100  A    between atoms: _227  and  _228
REMARK  101  A    between atoms: _231  and  _233
REMARK  102  A    between atoms: _233  and  _234
REMARK  103  A    between atoms: _233  and  _236
REMARK  104  A    between atoms: _236  and  _237
REMARK  105  A    between atoms: _240  and  _242
REMARK  106  A    between atoms: _242  and  _243
REMARK  107  A    between atoms: _242  and  _245
REMARK  108  A    between atoms: _245  and  _246
REMARK  109  A    between atoms: _251  and  _253
REMARK  110  A    between atoms: _253  and  _254
REMARK  111  A    between atoms: _253  and  _256
REMARK  112  A    between atoms: _256  and  _257
REMARK  113  A    between atoms: _260  and  _262
REMARK  114  A    between atoms: _262  and  _263
REMARK  115  A    between atoms: _262  and  _265
REMARK  116  A    between atoms: _265  and  _266
REMARK  117  A    between atoms: _271  and  _273
REMARK  118  A    between atoms: _273  and  _274
REMARK  119  A    between atoms: _273  and  _276
REMARK  120  A    between atoms: _276  and  _277
REMARK  121  A    between atoms: _281  and  _282
REMARK  122  A    between atoms: _287  and  _289
REMARK  123  A    between atoms: _289  and  _290
REMARK  124  A    between atoms: _289  and  _292
REMARK  125  A    between atoms: _292  and  _293
REMARK  126  A    between atoms: _296  and  _297
REMARK  127  A    between atoms: _302  and  _304
REMARK  128  A    between atoms: _304  and  _305
REMARK  129  A    between atoms: _304  and  _307
REMARK  130  A    between atoms: _307  and  _308
REMARK  131  A    between atoms: _315  and  _316
REMARK  132  A    between atoms: _321  and  _323
REMARK  133  A    between atoms: _323  and  _324
REMARK  134  A    between atoms: _323  and  _326
REMARK  135  A    between atoms: _326  and  _327
REMARK  136  A    between atoms: _330  and  _332
REMARK  137  A    between atoms: _332  and  _333
REMARK  138  A    between atoms: _332  and  _335
REMARK  139  A    between atoms: _335  and  _336
REMARK  140  A    between atoms: _346  and  _348
REMARK  141  A    between atoms: _348  and  _349
REMARK  142  A    between atoms: _348  and  _351
REMARK  143  A    between atoms: _351  and  _352
REMARK  144  A    between atoms: _356  and  ZN_366
REMARK  145  A    between atoms: _357  and  _359
REMARK  146  A    between atoms: _359  and  _360
REMARK  147  A    between atoms: _359  and  _362
REMARK  148  A    between atoms: _362  and  _363
REMARK                            x       y       z     vdW  Elec       q    Type
REMARK                         _______ _______ _______ _____ _____    ______ ____
ROOT
ATOM      1  O   HOH     1     -29.073  15.350  -4.623  0.00  0.00    +0.000 OA
ENDROOT
TORSDOF 0
REMARK  Name = ../refined-set-2016/4mhy/4mhy_pocket.pdb
REMARK  148 active torsions:
REMARK  status: ('A' for Active; 'I' for Inactive)
REMARK    1  A    between atoms: _1  and  _3
REMARK    2  A    between atoms: _3  and  _4
REMARK    3  A    between atoms: _3  and  _6
REMARK    4  A    between atoms: _6  and  _7
REMARK    5  A    between atoms: _12  and  _14
REMARK    6  A    between atoms: _14  and  _15
REMARK    7  A    between atoms: _14  and  _17
REMARK    8  A    between atoms: _17  and  _18
REMARK    9  A    between atoms: _21  and  _23
REMARK   10  A    between atoms: _23  and  _24
REMARK   11  A    between atoms: _23  and  _26
REMARK   12  A    between atoms: _26  and  _27
REMARK   13  A    between atoms: _30  and  _32
REMARK   14  A    between atoms: _32  and  _33
REMARK   15  A    between atoms: _32  and  _35
REMARK   16  A    between atoms: _35  and  _36
REMARK   17  A    between atoms: _42  and  _44
REMARK   18  A    between atoms: _44  and  _45
REMARK   19  A    between atoms: _44  and  _47
REMARK   20  A    between atoms: _47  and  _48
REMARK   21  A    between atoms: _51  and  _53
REMARK   22  A    between atoms: _53  and  _54
REMARK   23  A    between atoms: _53  and  _56
REMARK   24  A    between atoms: _56  and  _57
REMARK   25  A    between atoms: _57  and  _59
REMARK   26  A    between atoms: _59  and  ZN_366
REMARK   27  A    between atoms: _60  and  _62
REMARK   28  A    between atoms: _62  and  _63
REMARK   29  A    between atoms: _62  and  _65
REMARK   30  A    between atoms: _65  and  _66
REMARK   31  A    between atoms: _68  and  _70
REMARK   32  A    between atoms: _70  and  _71
REMARK   33  A    between atoms: _70  and  _73
REMARK   34  A    between atoms: _73  and  _74
REMARK   35  A    between atoms: _74  and  _75
REMARK   36  A    between atoms: _78  and  _80
REMARK   37  A    between atoms: _80  and  _81
REMARK   38  A    between atoms: _80  and  _83
REMARK   39  A    between atoms: _83  and  _84
REMARK   40  A    between atoms: _84  and  _85
REMARK   41  A    between atoms: _85  and  _87
REMARK   42  A    between atoms: _87  and  ZN_366
REMARK   43  A    between atoms: _88  and  _90
REMARK   44  A    between atoms: _90  and  _91
REMARK   45  A    between atoms: _94  and  _96
REMARK   46  A    between atoms: _96  and  _97
REMARK   47  A    between atoms: _96  and  _99
REMARK   48  A    between atoms: _99  and  _100
REMARK   49  A    between atoms: _110  and  _112
REMARK   50  A    between atoms: _112  and  _113
REMARK   51  A    between atoms: _112  and  _115
REMARK   52  A    between atoms: _115  and  _116
REMARK   53  A    between atoms: _118  and  _120
REMARK   54  A    between atoms: _120  and  _121
REMARK   55  A    between atoms: _120  and  _123
REMARK   56  A    between atoms: _123  and  _124
REMARK   57  A    between atoms: _127  and  _129
REMARK   58  A    between atoms: _129  and  _130
REMARK   59  A    between atoms: _129  and  _132
REMARK   60  A    between atoms: _132  and  _133
REMARK   61  A    between atoms: _136  and  _138
REMARK   62  A    between atoms: _138  and  _139
REMARK   63  A    between atoms: _138  and  _141
REMARK   64  A    between atoms: _141  and  _142
REMARK   65  A    between atoms: _145  and  _147
REMARK   66  A    between atoms: _147  and  _148
REMARK   67  A    between atoms: _147  and  _150
REMARK   68  A    between atoms: _150  and  _151
REMARK   69  A    between atoms: _154  and  _156
REMARK   70  A    between atoms: _156  and  _157
REMARK   71  A    between atoms: _156  and  _159
REMARK   72  A    between atoms: _159  and  _160
REMARK   73  A    between atoms: _163  and  _165
REMARK   74  A    between atoms: _165  and  _166
REMARK   75  A    between atoms: _165  and  _168
REMARK   76  A    between atoms: _168  and  _169
REMARK   77  A    between atoms: _174  and  _175
REMARK   78  A    between atoms: _177  and  _179
REMARK   79  A    between atoms: _179  and  _180
REMARK   80  A    between atoms: _179  and  _182
REMARK   81  A    between atoms: _182  and  _183
REMARK   82  A    between atoms: _186  and  _188
REMARK   83  A    between atoms: _188  and  _189
REMARK   84  A    between atoms: _191  and  _193
REMARK   85  A    between atoms: _193  and  _194
REMARK   86  A    between atoms: _193  and  _196
REMARK   87  A    between atoms: _196  and  _197
REMARK   88  A    between atoms: _203  and  _205
REMARK   89  A    between atoms: _205  and  _206
REMARK   90  A    between atoms: _205  and  _208
REMARK   91  A    between atoms: _208  and  _209
REMARK   92  A    between atoms: _212  and  _214
REMARK   93  A    between atoms: _214  and  _215
REMARK   94  A    between atoms: _214  and  _217
REMARK   95  A    between atoms: _217  and  _218
REMARK   96  A    between atoms: _218  and  _219
REMARK   97  A    between atoms: _222  and  _224
REMARK   98  A    between atoms: _224  and  _225
REMARK   99  A    between atoms: _224  and  _227
REMARK  100  A    between atoms: _227  and  _228
REMARK  101  A    between atoms: _231  and  _233
REMARK  102  A    between atoms: _233  and  _234
REMARK  103  A    between atoms: _233  and  _236
REMARK  104  A    between atoms: _236  and  _237
REMARK  105  A    between atoms: _240  and  _242
REMARK  106  A    between atoms: _242  and  _243
REMARK  107  A    between atoms: _242  and  _245
REMARK  108  A    between atoms: _245  and  _246
REMARK  109  A    between atoms: _251  and  _253
REMARK  110  A    between atoms: _253  and  _254
REMARK  111  A    between atoms: _253  and  _256
REMARK  112  A    between atoms: _256  and  _257
REMARK  113  A    between atoms: _260  and  _262
REMARK  114  A    between atoms: _262  and  _263
REMARK  115  A    between atoms: _262  and  _265
REMARK  116  A    between atoms: _265  and  _266
REMARK  117  A    between atoms: _271  and  _273
REMARK  118  A    between atoms: _273  and  _274
REMARK  119  A    between atoms: _273  and  _276
REMARK  120  A    between atoms: _276  and  _277
REMARK  121  A    between atoms: _281  and  _282
REMARK  122  A    between atoms: _287  and  _289
REMARK  123  A    between atoms: _289  and  _290
REMARK  124  A    between atoms: _289  and  _292
REMARK  125  A    between atoms: _292  and  _293
REMARK  126  A    between atoms: _296  and  _297
REMARK  127  A    between atoms: _302  and  _304
REMARK  128  A    between atoms: _304  and  _305
REMARK  129  A    between atoms: _304  and  _307
REMARK  130  A    between atoms: _307  and  _308
REMARK  131  A    between atoms: _315  and  _316
REMARK  132  A    between atoms: _321  and  _323
REMARK  133  A    between atoms: _323  and  _324
REMARK  134  A    between atoms: _323  and  _326
REMARK  135  A    between atoms: _326  and  _327
REMARK  136  A    between atoms: _330  and  _332
REMARK  137  A    between atoms: _332  and  _333
REMARK  138  A    between atoms: _332  and  _335
REMARK  139  A    between atoms: _335  and  _336
REMARK  140  A    between atoms: _346  and  _348
REMARK  141  A    between atoms: _348  and  _349
REMARK  142  A    between atoms: _348  and  _351
REMARK  143  A    between atoms: _351  and  _352
REMARK  144  A    between atoms: _356  and  ZN_366
REMARK  145  A    between atoms: _357  and  _359
REMARK  146  A    between atoms: _359  and  _360
REMARK  147  A    between atoms: _359  and  _362
REMARK  148  A    between atoms: _362  and  _363
REMARK                            x       y       z     vdW  Elec       q    Type
REMARK                         _______ _______ _______ _____ _____    ______ ____
ROOT
ATOM      1  O   HOH     1     -30.547  16.645  -8.199  0.00  0.00    +0.000 OA
ENDROOT
TORSDOF 0
REMARK  Name = ../refined-set-2016/4mhy/4mhy_pocket.pdb
REMARK  148 active torsions:
REMARK  status: ('A' for Active; 'I' for Inactive)
REMARK    1  A    between atoms: _1  and  _3
REMARK    2  A    between atoms: _3  and  _4
REMARK    3  A    between atoms: _3  and  _6
REMARK    4  A    between atoms: _6  and  _7
REMARK    5  A    between atoms: _12  and  _14
REMARK    6  A    between atoms: _14  and  _15
REMARK    7  A    between atoms: _14  and  _17
REMARK    8  A    between atoms: _17  and  _18
REMARK    9  A    between atoms: _21  and  _23
REMARK   10  A    between atoms: _23  and  _24
REMARK   11  A    between atoms: _23  and  _26
REMARK   12  A    between atoms: _26  and  _27
REMARK   13  A    between atoms: _30  and  _32
REMARK   14  A    between atoms: _32  and  _33
REMARK   15  A    between atoms: _32  and  _35
REMARK   16  A    between atoms: _35  and  _36
REMARK   17  A    between atoms: _42  and  _44
REMARK   18  A    between atoms: _44  and  _45
REMARK   19  A    between atoms: _44  and  _47
REMARK   20  A    between atoms: _47  and  _48
REMARK   21  A    between atoms: _51  and  _53
REMARK   22  A    between atoms: _53  and  _54
REMARK   23  A    between atoms: _53  and  _56
REMARK   24  A    between atoms: _56  and  _57
REMARK   25  A    between atoms: _57  and  _59
REMARK   26  A    between atoms: _59  and  ZN_366
REMARK   27  A    between atoms: _60  and  _62
REMARK   28  A    between atoms: _62  and  _63
REMARK   29  A    between atoms: _62  and  _65
REMARK   30  A    between atoms: _65  and  _66
REMARK   31  A    between atoms: _68  and  _70
REMARK   32  A    between atoms: _70  and  _71
REMARK   33  A    between atoms: _70  and  _73
REMARK   34  A    between atoms: _73  and  _74
REMARK   35  A    between atoms: _74  and  _75
REMARK   36  A    between atoms: _78  and  _80
REMARK   37  A    between atoms: _80  and  _81
REMARK   38  A    between atoms: _80  and  _83
REMARK   39  A    between atoms: _83  and  _84
REMARK   40  A    between atoms: _84  and  _85
REMARK   41  A    between atoms: _85  and  _87
REMARK   42  A    between atoms: _87  and  ZN_366
REMARK   43  A    between atoms: _88  and  _90
REMARK   44  A    between atoms: _90  and  _91
REMARK   45  A    between atoms: _94  and  _96
REMARK   46  A    between atoms: _96  and  _97
REMARK   47  A    between atoms: _96  and  _99
REMARK   48  A    between atoms: _99  and  _100
REMARK   49  A    between atoms: _110  and  _112
REMARK   50  A    between atoms: _112  and  _113
REMARK   51  A    between atoms: _112  and  _115
REMARK   52  A    between atoms: _115  and  _116
REMARK   53  A    between atoms: _118  and  _120
REMARK   54  A    between atoms: _120  and  _121
REMARK   55  A    between atoms: _120  and  _123
REMARK   56  A    between atoms: _123  and  _124
REMARK   57  A    between atoms: _127  and  _129
REMARK   58  A    between atoms: _129  and  _130
REMARK   59  A    between atoms: _129  and  _132
REMARK   60  A    between atoms: _132  and  _133
REMARK   61  A    between atoms: _136  and  _138
REMARK   62  A    between atoms: _138  and  _139
REMARK   63  A    between atoms: _138  and  _141
REMARK   64  A    between atoms: _141  and  _142
REMARK   65  A    between atoms: _145  and  _147
REMARK   66  A    between atoms: _147  and  _148
REMARK   67  A    between atoms: _147  and  _150
REMARK   68  A    between atoms: _150  and  _151
REMARK   69  A    between atoms: _154  and  _156
REMARK   70  A    between atoms: _156  and  _157
REMARK   71  A    between atoms: _156  and  _159
REMARK   72  A    between atoms: _159  and  _160
REMARK   73  A    between atoms: _163  and  _165
REMARK   74  A    between atoms: _165  and  _166
REMARK   75  A    between atoms: _165  and  _168
REMARK   76  A    between atoms: _168  and  _169
REMARK   77  A    between atoms: _174  and  _175
REMARK   78  A    between atoms: _177  and  _179
REMARK   79  A    between atoms: _179  and  _180
REMARK   80  A    between atoms: _179  and  _182
REMARK   81  A    between atoms: _182  and  _183
REMARK   82  A    between atoms: _186  and  _188
REMARK   83  A    between atoms: _188  and  _189
REMARK   84  A    between atoms: _191  and  _193
REMARK   85  A    between atoms: _193  and  _194
REMARK   86  A    between atoms: _193  and  _196
REMARK   87  A    between atoms: _196  and  _197
REMARK   88  A    between atoms: _203  and  _205
REMARK   89  A    between atoms: _205  and  _206
REMARK   90  A    between atoms: _205  and  _208
REMARK   91  A    between atoms: _208  and  _209
REMARK   92  A    between atoms: _212  and  _214
REMARK   93  A    between atoms: _214  and  _215
REMARK   94  A    between atoms: _214  and  _217
REMARK   95  A    between atoms: _217  and  _218
REMARK   96  A    between atoms: _218  and  _219
REMARK   97  A    between atoms: _222  and  _224
REMARK   98  A    between atoms: _224  and  _225
REMARK   99  A    between atoms: _224  and  _227
REMARK  100  A    between atoms: _227  and  _228
REMARK  101  A    between atoms: _231  and  _233
REMARK  102  A    between atoms: _233  and  _234
REMARK  103  A    between atoms: _233  and  _236
REMARK  104  A    between atoms: _236  and  _237
REMARK  105  A    between atoms: _240  and  _242
REMARK  106  A    between atoms: _242  and  _243
REMARK  107  A    between atoms: _242  and  _245
REMARK  108  A    between atoms: _245  and  _246
REMARK  109  A    between atoms: _251  and  _253
REMARK  110  A    between atoms: _253  and  _254
REMARK  111  A    between atoms: _253  and  _256
REMARK  112  A    between atoms: _256  and  _257
REMARK  113  A    between atoms: _260  and  _262
REMARK  114  A    between atoms: _262  and  _263
REMARK  115  A    between atoms: _262  and  _265
REMARK  116  A    between atoms: _265  and  _266
REMARK  117  A    between atoms: _271  and  _273
REMARK  118  A    between atoms: _273  and  _274
REMARK  119  A    between atoms: _273  and  _276
REMARK  120  A    between atoms: _276  and  _277
REMARK  121  A    between atoms: _281  and  _282
REMARK  122  A    between atoms: _287  and  _289
REMARK  123  A    between atoms: _289  and  _290
REMARK  124  A    between atoms: _289  and  _292
REMARK  125  A    between atoms: _292  and  _293
REMARK  126  A    between atoms: _296  and  _297
REMARK  127  A    between atoms: _302  and  _304
REMARK  128  A    between atoms: _304  and  _305
REMARK  129  A    between atoms: _304  and  _307
REMARK  130  A    between atoms: _307  and  _308
REMARK  131  A    between atoms: _315  and  _316
REMARK  132  A    between atoms: _321  and  _323
REMARK  133  A    between atoms: _323  and  _324
REMARK  134  A    between atoms: _323  and  _326
REMARK  135  A    between atoms: _326  and  _327
REMARK  136  A    between atoms: _330  and  _332
REMARK  137  A    between atoms: _332  and  _333
REMARK  138  A    between atoms: _332  and  _335
REMARK  139  A    between atoms: _335  and  _336
REMARK  140  A    between atoms: _346  and  _348
REMARK  141  A    between atoms: _348  and  _349
REMARK  142  A    between atoms: _348  and  _351
REMARK  143  A    between atoms: _351  and  _352
REMARK  144  A    between atoms: _356  and  ZN_366
REMARK  145  A    between atoms: _357  and  _359
REMARK  146  A    between atoms: _359  and  _360
REMARK  147  A    between atoms: _359  and  _362
REMARK  148  A    between atoms: _362  and  _363
REMARK                            x       y       z     vdW  Elec       q    Type
REMARK                         _______ _______ _______ _____ _____    ______ ____
ROOT
ATOM      1  O   HOH     1     -21.969  14.536   1.040  0.00  0.00    +0.000 OA
ENDROOT
TORSDOF 0
REMARK  Name = ../refined-set-2016/4mhy/4mhy_pocket.pdb
REMARK  148 active torsions:
REMARK  status: ('A' for Active; 'I' for Inactive)
REMARK    1  A    between atoms: _1  and  _3
REMARK    2  A    between atoms: _3  and  _4
REMARK    3  A    between atoms: _3  and  _6
REMARK    4  A    between atoms: _6  and  _7
REMARK    5  A    between atoms: _12  and  _14
REMARK    6  A    between atoms: _14  and  _15
REMARK    7  A    between atoms: _14  and  _17
REMARK    8  A    between atoms: _17  and  _18
REMARK    9  A    between atoms: _21  and  _23
REMARK   10  A    between atoms: _23  and  _24
REMARK   11  A    between atoms: _23  and  _26
REMARK   12  A    between atoms: _26  and  _27
REMARK   13  A    between atoms: _30  and  _32
REMARK   14  A    between atoms: _32  and  _33
REMARK   15  A    between atoms: _32  and  _35
REMARK   16  A    between atoms: _35  and  _36
REMARK   17  A    between atoms: _42  and  _44
REMARK   18  A    between atoms: _44  and  _45
REMARK   19  A    between atoms: _44  and  _47
REMARK   20  A    between atoms: _47  and  _48
REMARK   21  A    between atoms: _51  and  _53
REMARK   22  A    between atoms: _53  and  _54
REMARK   23  A    between atoms: _53  and  _56
REMARK   24  A    between atoms: _56  and  _57
REMARK   25  A    between atoms: _57  and  _59
REMARK   26  A    between atoms: _59  and  ZN_366
REMARK   27  A    between atoms: _60  and  _62
REMARK   28  A    between atoms: _62  and  _63
REMARK   29  A    between atoms: _62  and  _65
REMARK   30  A    between atoms: _65  and  _66
REMARK   31  A    between atoms: _68  and  _70
REMARK   32  A    between atoms: _70  and  _71
REMARK   33  A    between atoms: _70  and  _73
REMARK   34  A    between atoms: _73  and  _74
REMARK   35  A    between atoms: _74  and  _75
REMARK   36  A    between atoms: _78  and  _80
REMARK   37  A    between atoms: _80  and  _81
REMARK   38  A    between atoms: _80  and  _83
REMARK   39  A    between atoms: _83  and  _84
REMARK   40  A    between atoms: _84  and  _85
REMARK   41  A    between atoms: _85  and  _87
REMARK   42  A    between atoms: _87  and  ZN_366
REMARK   43  A    between atoms: _88  and  _90
REMARK   44  A    between atoms: _90  and  _91
REMARK   45  A    between atoms: _94  and  _96
REMARK   46  A    between atoms: _96  and  _97
REMARK   47  A    between atoms: _96  and  _99
REMARK   48  A    between atoms: _99  and  _100
REMARK   49  A    between atoms: _110  and  _112
REMARK   50  A    between atoms: _112  and  _113
REMARK   51  A    between atoms: _112  and  _115
REMARK   52  A    between atoms: _115  and  _116
REMARK   53  A    between atoms: _118  and  _120
REMARK   54  A    between atoms: _120  and  _121
REMARK   55  A    between atoms: _120  and  _123
REMARK   56  A    between atoms: _123  and  _124
REMARK   57  A    between atoms: _127  and  _129
REMARK   58  A    between atoms: _129  and  _130
REMARK   59  A    between atoms: _129  and  _132
REMARK   60  A    between atoms: _132  and  _133
REMARK   61  A    between atoms: _136  and  _138
REMARK   62  A    between atoms: _138  and  _139
REMARK   63  A    between atoms: _138  and  _141
REMARK   64  A    between atoms: _141  and  _142
REMARK   65  A    between atoms: _145  and  _147
REMARK   66  A    between atoms: _147  and  _148
REMARK   67  A    between atoms: _147  and  _150
REMARK   68  A    between atoms: _150  and  _151
REMARK   69  A    between atoms: _154  and  _156
REMARK   70  A    between atoms: _156  and  _157
REMARK   71  A    between atoms: _156  and  _159
REMARK   72  A    between atoms: _159  and  _160
REMARK   73  A    between atoms: _163  and  _165
REMARK   74  A    between atoms: _165  and  _166
REMARK   75  A    between atoms: _165  and  _168
REMARK   76  A    between atoms: _168  and  _169
REMARK   77  A    between atoms: _174  and  _175
REMARK   78  A    between atoms: _177  and  _179
REMARK   79  A    between atoms: _179  and  _180
REMARK   80  A    between atoms: _179  and  _182
REMARK   81  A    between atoms: _182  and  _183
REMARK   82  A    between atoms: _186  and  _188
REMARK   83  A    between atoms: _188  and  _189
REMARK   84  A    between atoms: _191  and  _193
REMARK   85  A    between atoms: _193  and  _194
REMARK   86  A    between atoms: _193  and  _196
REMARK   87  A    between atoms: _196  and  _197
REMARK   88  A    between atoms: _203  and  _205
REMARK   89  A    between atoms: _205  and  _206
REMARK   90  A    between atoms: _205  and  _208
REMARK   91  A    between atoms: _208  and  _209
REMARK   92  A    between atoms: _212  and  _214
REMARK   93  A    between atoms: _214  and  _215
REMARK   94  A    between atoms: _214  and  _217
REMARK   95  A    between atoms: _217  and  _218
REMARK   96  A    between atoms: _218  and  _219
REMARK   97  A    between atoms: _222  and  _224
REMARK   98  A    between atoms: _224  and  _225
REMARK   99  A    between atoms: _224  and  _227
REMARK  100  A    between atoms: _227  and  _228
REMARK  101  A    between atoms: _231  and  _233
REMARK  102  A    between atoms: _233  and  _234
REMARK  103  A    between atoms: _233  and  _236
REMARK  104  A    between atoms: _236  and  _237
REMARK  105  A    between atoms: _240  and  _242
REMARK  106  A    between atoms: _242  and  _243
REMARK  107  A    between atoms: _242  and  _245
REMARK  108  A    between atoms: _245  and  _246
REMARK  109  A    between atoms: _251  and  _253
REMARK  110  A    between atoms: _253  and  _254
REMARK  111  A    between atoms: _253  and  _256
REMARK  112  A    between atoms: _256  and  _257
REMARK  113  A    between atoms: _260  and  _262
REMARK  114  A    between atoms: _262  and  _263
REMARK  115  A    between atoms: _262  and  _265
REMARK  116  A    between atoms: _265  and  _266
REMARK  117  A    between atoms: _271  and  _273
REMARK  118  A    between atoms: _273  and  _274
REMARK  119  A    between atoms: _273  and  _276
REMARK  120  A    between atoms: _276  and  _277
REMARK  121  A    between atoms: _281  and  _282
REMARK  122  A    between atoms: _287  and  _289
REMARK  123  A    between atoms: _289  and  _290
REMARK  124  A    between atoms: _289  and  _292
REMARK  125  A    between atoms: _292  and  _293
REMARK  126  A    between atoms: _296  and  _297
REMARK  127  A    between atoms: _302  and  _304
REMARK  128  A    between atoms: _304  and  _305
REMARK  129  A    between atoms: _304  and  _307
REMARK  130  A    between atoms: _307  and  _308
REMARK  131  A    between atoms: _315  and  _316
REMARK  132  A    between atoms: _321  and  _323
REMARK  133  A    between atoms: _323  and  _324
REMARK  134  A    between atoms: _323  and  _326
REMARK  135  A    between atoms: _326  and  _327
REMARK  136  A    between atoms: _330  and  _332
REMARK  137  A    between atoms: _332  and  _333
REMARK  138  A    between atoms: _332  and  _335
REMARK  139  A    between atoms: _335  and  _336
REMARK  140  A    between atoms: _346  and  _348
REMARK  141  A    between atoms: _348  and  _349
REMARK  142  A    between atoms: _348  and  _351
REMARK  143  A    between atoms: _351  and  _352
REMARK  144  A    between atoms: _356  and  ZN_366
REMARK  145  A    between atoms: _357  and  _359
REMARK  146  A    between atoms: _359  and  _360
REMARK  147  A    between atoms: _359  and  _362
REMARK  148  A    between atoms: _362  and  _363
REMARK                            x       y       z     vdW  Elec       q    Type
REMARK                         _______ _______ _______ _____ _____    ______ ____
ROOT
ATOM      1  O   HOH     1     -24.683  14.833   0.385  0.00  0.00    +0.000 OA
ENDROOT
TORSDOF 0
REMARK  Name = ../refined-set-2016/4mhy/4mhy_pocket.pdb
REMARK  148 active torsions:
REMARK  status: ('A' for Active; 'I' for Inactive)
REMARK    1  A    between atoms: _1  and  _3
REMARK    2  A    between atoms: _3  and  _4
REMARK    3  A    between atoms: _3  and  _6
REMARK    4  A    between atoms: _6  and  _7
REMARK    5  A    between atoms: _12  and  _14
REMARK    6  A    between atoms: _14  and  _15
REMARK    7  A    between atoms: _14  and  _17
REMARK    8  A    between atoms: _17  and  _18
REMARK    9  A    between atoms: _21  and  _23
REMARK   10  A    between atoms: _23  and  _24
REMARK   11  A    between atoms: _23  and  _26
REMARK   12  A    between atoms: _26  and  _27
REMARK   13  A    between atoms: _30  and  _32
REMARK   14  A    between atoms: _32  and  _33
REMARK   15  A    between atoms: _32  and  _35
REMARK   16  A    between atoms: _35  and  _36
REMARK   17  A    between atoms: _42  and  _44
REMARK   18  A    between atoms: _44  and  _45
REMARK   19  A    between atoms: _44  and  _47
REMARK   20  A    between atoms: _47  and  _48
REMARK   21  A    between atoms: _51  and  _53
REMARK   22  A    between atoms: _53  and  _54
REMARK   23  A    between atoms: _53  and  _56
REMARK   24  A    between atoms: _56  and  _57
REMARK   25  A    between atoms: _57  and  _59
REMARK   26  A    between atoms: _59  and  ZN_366
REMARK   27  A    between atoms: _60  and  _62
REMARK   28  A    between atoms: _62  and  _63
REMARK   29  A    between atoms: _62  and  _65
REMARK   30  A    between atoms: _65  and  _66
REMARK   31  A    between atoms: _68  and  _70
REMARK   32  A    between atoms: _70  and  _71
REMARK   33  A    between atoms: _70  and  _73
REMARK   34  A    between atoms: _73  and  _74
REMARK   35  A    between atoms: _74  and  _75
REMARK   36  A    between atoms: _78  and  _80
REMARK   37  A    between atoms: _80  and  _81
REMARK   38  A    between atoms: _80  and  _83
REMARK   39  A    between atoms: _83  and  _84
REMARK   40  A    between atoms: _84  and  _85
REMARK   41  A    between atoms: _85  and  _87
REMARK   42  A    between atoms: _87  and  ZN_366
REMARK   43  A    between atoms: _88  and  _90
REMARK   44  A    between atoms: _90  and  _91
REMARK   45  A    between atoms: _94  and  _96
REMARK   46  A    between atoms: _96  and  _97
REMARK   47  A    between atoms: _96  and  _99
REMARK   48  A    between atoms: _99  and  _100
REMARK   49  A    between atoms: _110  and  _112
REMARK   50  A    between atoms: _112  and  _113
REMARK   51  A    between atoms: _112  and  _115
REMARK   52  A    between atoms: _115  and  _116
REMARK   53  A    between atoms: _118  and  _120
REMARK   54  A    between atoms: _120  and  _121
REMARK   55  A    between atoms: _120  and  _123
REMARK   56  A    between atoms: _123  and  _124
REMARK   57  A    between atoms: _127  and  _129
REMARK   58  A    between atoms: _129  and  _130
REMARK   59  A    between atoms: _129  and  _132
REMARK   60  A    between atoms: _132  and  _133
REMARK   61  A    between atoms: _136  and  _138
REMARK   62  A    between atoms: _138  and  _139
REMARK   63  A    between atoms: _138  and  _141
REMARK   64  A    between atoms: _141  and  _142
REMARK   65  A    between atoms: _145  and  _147
REMARK   66  A    between atoms: _147  and  _148
REMARK   67  A    between atoms: _147  and  _150
REMARK   68  A    between atoms: _150  and  _151
REMARK   69  A    between atoms: _154  and  _156
REMARK   70  A    between atoms: _156  and  _157
REMARK   71  A    between atoms: _156  and  _159
REMARK   72  A    between atoms: _159  and  _160
REMARK   73  A    between atoms: _163  and  _165
REMARK   74  A    between atoms: _165  and  _166
REMARK   75  A    between atoms: _165  and  _168
REMARK   76  A    between atoms: _168  and  _169
REMARK   77  A    between atoms: _174  and  _175
REMARK   78  A    between atoms: _177  and  _179
REMARK   79  A    between atoms: _179  and  _180
REMARK   80  A    between atoms: _179  and  _182
REMARK   81  A    between atoms: _182  and  _183
REMARK   82  A    between atoms: _186  and  _188
REMARK   83  A    between atoms: _188  and  _189
REMARK   84  A    between atoms: _191  and  _193
REMARK   85  A    between atoms: _193  and  _194
REMARK   86  A    between atoms: _193  and  _196
REMARK   87  A    between atoms: _196  and  _197
REMARK   88  A    between atoms: _203  and  _205
REMARK   89  A    between atoms: _205  and  _206
REMARK   90  A    between atoms: _205  and  _208
REMARK   91  A    between atoms: _208  and  _209
REMARK   92  A    between atoms: _212  and  _214
REMARK   93  A    between atoms: _214  and  _215
REMARK   94  A    between atoms: _214  and  _217
REMARK   95  A    between atoms: _217  and  _218
REMARK   96  A    between atoms: _218  and  _219
REMARK   97  A    between atoms: _222  and  _224
REMARK   98  A    between atoms: _224  and  _225
REMARK   99  A    between atoms: _224  and  _227
REMARK  100  A    between atoms: _227  and  _228
REMARK  101  A    between atoms: _231  and  _233
REMARK  102  A    between atoms: _233  and  _234
REMARK  103  A    between atoms: _233  and  _236
REMARK  104  A    between atoms: _236  and  _237
REMARK  105  A    between atoms: _240  and  _242
REMARK  106  A    between atoms: _242  and  _243
REMARK  107  A    between atoms: _242  and  _245
REMARK  108  A    between atoms: _245  and  _246
REMARK  109  A    between atoms: _251  and  _253
REMARK  110  A    between atoms: _253  and  _254
REMARK  111  A    between atoms: _253  and  _256
REMARK  112  A    between atoms: _256  and  _257
REMARK  113  A    between atoms: _260  and  _262
REMARK  114  A    between atoms: _262  and  _263
REMARK  115  A    between atoms: _262  and  _265
REMARK  116  A    between atoms: _265  and  _266
REMARK  117  A    between atoms: _271  and  _273
REMARK  118  A    between atoms: _273  and  _274
REMARK  119  A    between atoms: _273  and  _276
REMARK  120  A    between atoms: _276  and  _277
REMARK  121  A    between atoms: _281  and  _282
REMARK  122  A    between atoms: _287  and  _289
REMARK  123  A    between atoms: _289  and  _290
REMARK  124  A    between atoms: _289  and  _292
REMARK  125  A    between atoms: _292  and  _293
REMARK  126  A    between atoms: _296  and  _297
REMARK  127  A    between atoms: _302  and  _304
REMARK  128  A    between atoms: _304  and  _305
REMARK  129  A    between atoms: _304  and  _307
REMARK  130  A    between atoms: _307  and  _308
REMARK  131  A    between atoms: _315  and  _316
REMARK  132  A    between atoms: _321  and  _323
REMARK  133  A    between atoms: _323  and  _324
REMARK  134  A    between atoms: _323  and  _326
REMARK  135  A    between atoms: _326  and  _327
REMARK  136  A    between atoms: _330  and  _332
REMARK  137  A    between atoms: _332  and  _333
REMARK  138  A    between atoms: _332  and  _335
REMARK  139  A    between atoms: _335  and  _336
REMARK  140  A    between atoms: _346  and  _348
REMARK  141  A    between atoms: _348  and  _349
REMARK  142  A    between atoms: _348  and  _351
REMARK  143  A    between atoms: _351  and  _352
REMARK  144  A    between atoms: _356  and  ZN_366
REMARK  145  A    between atoms: _357  and  _359
REMARK  146  A    between atoms: _359  and  _360
REMARK  147  A    between atoms: _359  and  _362
REMARK  148  A    between atoms: _362  and  _363
REMARK                            x       y       z     vdW  Elec       q    Type
REMARK                         _______ _______ _______ _____ _____    ______ ____
ROOT
ATOM      1  O   HOH     1     -25.087  15.911  -2.059  0.00  0.00    +0.000 OA
ENDROOT
TORSDOF 0
REMARK  Name = ../refined-set-2016/4mhy/4mhy_pocket.pdb
REMARK  148 active torsions:
REMARK  status: ('A' for Active; 'I' for Inactive)
REMARK    1  A    between atoms: _1  and  _3
REMARK    2  A    between atoms: _3  and  _4
REMARK    3  A    between atoms: _3  and  _6
REMARK    4  A    between atoms: _6  and  _7
REMARK    5  A    between atoms: _12  and  _14
REMARK    6  A    between atoms: _14  and  _15
REMARK    7  A    between atoms: _14  and  _17
REMARK    8  A    between atoms: _17  and  _18
REMARK    9  A    between atoms: _21  and  _23
REMARK   10  A    between atoms: _23  and  _24
REMARK   11  A    between atoms: _23  and  _26
REMARK   12  A    between atoms: _26  and  _27
REMARK   13  A    between atoms: _30  and  _32
REMARK   14  A    between atoms: _32  and  _33
REMARK   15  A    between atoms: _32  and  _35
REMARK   16  A    between atoms: _35  and  _36
REMARK   17  A    between atoms: _42  and  _44
REMARK   18  A    between atoms: _44  and  _45
REMARK   19  A    between atoms: _44  and  _47
REMARK   20  A    between atoms: _47  and  _48
REMARK   21  A    between atoms: _51  and  _53
REMARK   22  A    between atoms: _53  and  _54
REMARK   23  A    between atoms: _53  and  _56
REMARK   24  A    between atoms: _56  and  _57
REMARK   25  A    between atoms: _57  and  _59
REMARK   26  A    between atoms: _59  and  ZN_366
REMARK   27  A    between atoms: _60  and  _62
REMARK   28  A    between atoms: _62  and  _63
REMARK   29  A    between atoms: _62  and  _65
REMARK   30  A    between atoms: _65  and  _66
REMARK   31  A    between atoms: _68  and  _70
REMARK   32  A    between atoms: _70  and  _71
REMARK   33  A    between atoms: _70  and  _73
REMARK   34  A    between atoms: _73  and  _74
REMARK   35  A    between atoms: _74  and  _75
REMARK   36  A    between atoms: _78  and  _80
REMARK   37  A    between atoms: _80  and  _81
REMARK   38  A    between atoms: _80  and  _83
REMARK   39  A    between atoms: _83  and  _84
REMARK   40  A    between atoms: _84  and  _85
REMARK   41  A    between atoms: _85  and  _87
REMARK   42  A    between atoms: _87  and  ZN_366
REMARK   43  A    between atoms: _88  and  _90
REMARK   44  A    between atoms: _90  and  _91
REMARK   45  A    between atoms: _94  and  _96
REMARK   46  A    between atoms: _96  and  _97
REMARK   47  A    between atoms: _96  and  _99
REMARK   48  A    between atoms: _99  and  _100
REMARK   49  A    between atoms: _110  and  _112
REMARK   50  A    between atoms: _112  and  _113
REMARK   51  A    between atoms: _112  and  _115
REMARK   52  A    between atoms: _115  and  _116
REMARK   53  A    between atoms: _118  and  _120
REMARK   54  A    between atoms: _120  and  _121
REMARK   55  A    between atoms: _120  and  _123
REMARK   56  A    between atoms: _123  and  _124
REMARK   57  A    between atoms: _127  and  _129
REMARK   58  A    between atoms: _129  and  _130
REMARK   59  A    between atoms: _129  and  _132
REMARK   60  A    between atoms: _132  and  _133
REMARK   61  A    between atoms: _136  and  _138
REMARK   62  A    between atoms: _138  and  _139
REMARK   63  A    between atoms: _138  and  _141
REMARK   64  A    between atoms: _141  and  _142
REMARK   65  A    between atoms: _145  and  _147
REMARK   66  A    between atoms: _147  and  _148
REMARK   67  A    between atoms: _147  and  _150
REMARK   68  A    between atoms: _150  and  _151
REMARK   69  A    between atoms: _154  and  _156
REMARK   70  A    between atoms: _156  and  _157
REMARK   71  A    between atoms: _156  and  _159
REMARK   72  A    between atoms: _159  and  _160
REMARK   73  A    between atoms: _163  and  _165
REMARK   74  A    between atoms: _165  and  _166
REMARK   75  A    between atoms: _165  and  _168
REMARK   76  A    between atoms: _168  and  _169
REMARK   77  A    between atoms: _174  and  _175
REMARK   78  A    between atoms: _177  and  _179
REMARK   79  A    between atoms: _179  and  _180
REMARK   80  A    between atoms: _179  and  _182
REMARK   81  A    between atoms: _182  and  _183
REMARK   82  A    between atoms: _186  and  _188
REMARK   83  A    between atoms: _188  and  _189
REMARK   84  A    between atoms: _191  and  _193
REMARK   85  A    between atoms: _193  and  _194
REMARK   86  A    between atoms: _193  and  _196
REMARK   87  A    between atoms: _196  and  _197
REMARK   88  A    between atoms: _203  and  _205
REMARK   89  A    between atoms: _205  and  _206
REMARK   90  A    between atoms: _205  and  _208
REMARK   91  A    between atoms: _208  and  _209
REMARK   92  A    between atoms: _212  and  _214
REMARK   93  A    between atoms: _214  and  _215
REMARK   94  A    between atoms: _214  and  _217
REMARK   95  A    between atoms: _217  and  _218
REMARK   96  A    between atoms: _218  and  _219
REMARK   97  A    between atoms: _222  and  _224
REMARK   98  A    between atoms: _224  and  _225
REMARK   99  A    between atoms: _224  and  _227
REMARK  100  A    between atoms: _227  and  _228
REMARK  101  A    between atoms: _231  and  _233
REMARK  102  A    between atoms: _233  and  _234
REMARK  103  A    between atoms: _233  and  _236
REMARK  104  A    between atoms: _236  and  _237
REMARK  105  A    between atoms: _240  and  _242
REMARK  106  A    between atoms: _242  and  _243
REMARK  107  A    between atoms: _242  and  _245
REMARK  108  A    between atoms: _245  and  _246
REMARK  109  A    between atoms: _251  and  _253
REMARK  110  A    between atoms: _253  and  _254
REMARK  111  A    between atoms: _253  and  _256
REMARK  112  A    between atoms: _256  and  _257
REMARK  113  A    between atoms: _260  and  _262
REMARK  114  A    between atoms: _262  and  _263
REMARK  115  A    between atoms: _262  and  _265
REMARK  116  A    between atoms: _265  and  _266
REMARK  117  A    between atoms: _271  and  _273
REMARK  118  A    between atoms: _273  and  _274
REMARK  119  A    between atoms: _273  and  _276
REMARK  120  A    between atoms: _276  and  _277
REMARK  121  A    between atoms: _281  and  _282
REMARK  122  A    between atoms: _287  and  _289
REMARK  123  A    between atoms: _289  and  _290
REMARK  124  A    between atoms: _289  and  _292
REMARK  125  A    between atoms: _292  and  _293
REMARK  126  A    between atoms: _296  and  _297
REMARK  127  A    between atoms: _302  and  _304
REMARK  128  A    between atoms: _304  and  _305
REMARK  129  A    between atoms: _304  and  _307
REMARK  130  A    between atoms: _307  and  _308
REMARK  131  A    between atoms: _315  and  _316
REMARK  132  A    between atoms: _321  and  _323
REMARK  133  A    between atoms: _323  and  _324
REMARK  134  A    between atoms: _323  and  _326
REMARK  135  A    between atoms: _326  and  _327
REMARK  136  A    between atoms: _330  and  _332
REMARK  137  A    between atoms: _332  and  _333
REMARK  138  A    between atoms: _332  and  _335
REMARK  139  A    between atoms: _335  and  _336
REMARK  140  A    between atoms: _346  and  _348
REMARK  141  A    between atoms: _348  and  _349
REMARK  142  A    between atoms: _348  and  _351
REMARK  143  A    between atoms: _351  and  _352
REMARK  144  A    between atoms: _356  and  ZN_366
REMARK  145  A    between atoms: _357  and  _359
REMARK  146  A    between atoms: _359  and  _360
REMARK  147  A    between atoms: _359  and  _362
REMARK  148  A    between atoms: _362  and  _363
REMARK                            x       y       z     vdW  Elec       q    Type
REMARK                         _______ _______ _______ _____ _____    ______ ____
ROOT
ATOM      1  O   HOH     1     -26.197  12.647   1.201  0.00  0.00    +0.000 OA
ENDROOT
TORSDOF 0
REMARK  Name = ../refined-set-2016/4mhy/4mhy_pocket.pdb
REMARK  148 active torsions:
REMARK  status: ('A' for Active; 'I' for Inactive)
REMARK    1  A    between atoms: _1  and  _3
REMARK    2  A    between atoms: _3  and  _4
REMARK    3  A    between atoms: _3  and  _6
REMARK    4  A    between atoms: _6  and  _7
REMARK    5  A    between atoms: _12  and  _14
REMARK    6  A    between atoms: _14  and  _15
REMARK    7  A    between atoms: _14  and  _17
REMARK    8  A    between atoms: _17  and  _18
REMARK    9  A    between atoms: _21  and  _23
REMARK   10  A    between atoms: _23  and  _24
REMARK   11  A    between atoms: _23  and  _26
REMARK   12  A    between atoms: _26  and  _27
REMARK   13  A    between atoms: _30  and  _32
REMARK   14  A    between atoms: _32  and  _33
REMARK   15  A    between atoms: _32  and  _35
REMARK   16  A    between atoms: _35  and  _36
REMARK   17  A    between atoms: _42  and  _44
REMARK   18  A    between atoms: _44  and  _45
REMARK   19  A    between atoms: _44  and  _47
REMARK   20  A    between atoms: _47  and  _48
REMARK   21  A    between atoms: _51  and  _53
REMARK   22  A    between atoms: _53  and  _54
REMARK   23  A    between atoms: _53  and  _56
REMARK   24  A    between atoms: _56  and  _57
REMARK   25  A    between atoms: _57  and  _59
REMARK   26  A    between atoms: _59  and  ZN_366
REMARK   27  A    between atoms: _60  and  _62
REMARK   28  A    between atoms: _62  and  _63
REMARK   29  A    between atoms: _62  and  _65
REMARK   30  A    between atoms: _65  and  _66
REMARK   31  A    between atoms: _68  and  _70
REMARK   32  A    between atoms: _70  and  _71
REMARK   33  A    between atoms: _70  and  _73
REMARK   34  A    between atoms: _73  and  _74
REMARK   35  A    between atoms: _74  and  _75
REMARK   36  A    between atoms: _78  and  _80
REMARK   37  A    between atoms: _80  and  _81
REMARK   38  A    between atoms: _80  and  _83
REMARK   39  A    between atoms: _83  and  _84
REMARK   40  A    between atoms: _84  and  _85
REMARK   41  A    between atoms: _85  and  _87
REMARK   42  A    between atoms: _87  and  ZN_366
REMARK   43  A    between atoms: _88  and  _90
REMARK   44  A    between atoms: _90  and  _91
REMARK   45  A    between atoms: _94  and  _96
REMARK   46  A    between atoms: _96  and  _97
REMARK   47  A    between atoms: _96  and  _99
REMARK   48  A    between atoms: _99  and  _100
REMARK   49  A    between atoms: _110  and  _112
REMARK   50  A    between atoms: _112  and  _113
REMARK   51  A    between atoms: _112  and  _115
REMARK   52  A    between atoms: _115  and  _116
REMARK   53  A    between atoms: _118  and  _120
REMARK   54  A    between atoms: _120  and  _121
REMARK   55  A    between atoms: _120  and  _123
REMARK   56  A    between atoms: _123  and  _124
REMARK   57  A    between atoms: _127  and  _129
REMARK   58  A    between atoms: _129  and  _130
REMARK   59  A    between atoms: _129  and  _132
REMARK   60  A    between atoms: _132  and  _133
REMARK   61  A    between atoms: _136  and  _138
REMARK   62  A    between atoms: _138  and  _139
REMARK   63  A    between atoms: _138  and  _141
REMARK   64  A    between atoms: _141  and  _142
REMARK   65  A    between atoms: _145  and  _147
REMARK   66  A    between atoms: _147  and  _148
REMARK   67  A    between atoms: _147  and  _150
REMARK   68  A    between atoms: _150  and  _151
REMARK   69  A    between atoms: _154  and  _156
REMARK   70  A    between atoms: _156  and  _157
REMARK   71  A    between atoms: _156  and  _159
REMARK   72  A    between atoms: _159  and  _160
REMARK   73  A    between atoms: _163  and  _165
REMARK   74  A    between atoms: _165  and  _166
REMARK   75  A    between atoms: _165  and  _168
REMARK   76  A    between atoms: _168  and  _169
REMARK   77  A    between atoms: _174  and  _175
REMARK   78  A    between atoms: _177  and  _179
REMARK   79  A    between atoms: _179  and  _180
REMARK   80  A    between atoms: _179  and  _182
REMARK   81  A    between atoms: _182  and  _183
REMARK   82  A    between atoms: _186  and  _188
REMARK   83  A    between atoms: _188  and  _189
REMARK   84  A    between atoms: _191  and  _193
REMARK   85  A    between atoms: _193  and  _194
REMARK   86  A    between atoms: _193  and  _196
REMARK   87  A    between atoms: _196  and  _197
REMARK   88  A    between atoms: _203  and  _205
REMARK   89  A    between atoms: _205  and  _206
REMARK   90  A    between atoms: _205  and  _208
REMARK   91  A    between atoms: _208  and  _209
REMARK   92  A    between atoms: _212  and  _214
REMARK   93  A    between atoms: _214  and  _215
REMARK   94  A    between atoms: _214  and  _217
REMARK   95  A    between atoms: _217  and  _218
REMARK   96  A    between atoms: _218  and  _219
REMARK   97  A    between atoms: _222  and  _224
REMARK   98  A    between atoms: _224  and  _225
REMARK   99  A    between atoms: _224  and  _227
REMARK  100  A    between atoms: _227  and  _228
REMARK  101  A    between atoms: _231  and  _233
REMARK  102  A    between atoms: _233  and  _234
REMARK  103  A    between atoms: _233  and  _236
REMARK  104  A    between atoms: _236  and  _237
REMARK  105  A    between atoms: _240  and  _242
REMARK  106  A    between atoms: _242  and  _243
REMARK  107  A    between atoms: _242  and  _245
REMARK  108  A    between atoms: _245  and  _246
REMARK  109  A    between atoms: _251  and  _253
REMARK  110  A    between atoms: _253  and  _254
REMARK  111  A    between atoms: _253  and  _256
REMARK  112  A    between atoms: _256  and  _257
REMARK  113  A    between atoms: _260  and  _262
REMARK  114  A    between atoms: _262  and  _263
REMARK  115  A    between atoms: _262  and  _265
REMARK  116  A    between atoms: _265  and  _266
REMARK  117  A    between atoms: _271  and  _273
REMARK  118  A    between atoms: _273  and  _274
REMARK  119  A    between atoms: _273  and  _276
REMARK  120  A    between atoms: _276  and  _277
REMARK  121  A    between atoms: _281  and  _282
REMARK  122  A    between atoms: _287  and  _289
REMARK  123  A    between atoms: _289  and  _290
REMARK  124  A    between atoms: _289  and  _292
REMARK  125  A    between atoms: _292  and  _293
REMARK  126  A    between atoms: _296  and  _297
REMARK  127  A    between atoms: _302  and  _304
REMARK  128  A    between atoms: _304  and  _305
REMARK  129  A    between atoms: _304  and  _307
REMARK  130  A    between atoms: _307  and  _308
REMARK  131  A    between atoms: _315  and  _316
REMARK  132  A    between atoms: _321  and  _323
REMARK  133  A    between atoms: _323  and  _324
REMARK  134  A    between atoms: _323  and  _326
REMARK  135  A    between atoms: _326  and  _327
REMARK  136  A    between atoms: _330  and  _332
REMARK  137  A    between atoms: _332  and  _333
REMARK  138  A    between atoms: _332  and  _335
REMARK  139  A    between atoms: _335  and  _336
REMARK  140  A    between atoms: _346  and  _348
REMARK  141  A    between atoms: _348  and  _349
REMARK  142  A    between atoms: _348  and  _351
REMARK  143  A    between atoms: _351  and  _352
REMARK  144  A    between atoms: _356  and  ZN_366
REMARK  145  A    between atoms: _357  and  _359
REMARK  146  A    between atoms: _359  and  _360
REMARK  147  A    between atoms: _359  and  _362
REMARK  148  A    between atoms: _362  and  _363
REMARK                            x       y       z     vdW  Elec       q    Type
REMARK                         _______ _______ _______ _____ _____    ______ ____
ROOT
ATOM      1  O   HOH     1     -15.985  22.405  -3.367  0.00  0.00    +0.000 OA
ENDROOT
TORSDOF 0
REMARK  Name = ../refined-set-2016/4mhy/4mhy_pocket.pdb
REMARK  148 active torsions:
REMARK  status: ('A' for Active; 'I' for Inactive)
REMARK    1  A    between atoms: _1  and  _3
REMARK    2  A    between atoms: _3  and  _4
REMARK    3  A    between atoms: _3  and  _6
REMARK    4  A    between atoms: _6  and  _7
REMARK    5  A    between atoms: _12  and  _14
REMARK    6  A    between atoms: _14  and  _15
REMARK    7  A    between atoms: _14  and  _17
REMARK    8  A    between atoms: _17  and  _18
REMARK    9  A    between atoms: _21  and  _23
REMARK   10  A    between atoms: _23  and  _24
REMARK   11  A    between atoms: _23  and  _26
REMARK   12  A    between atoms: _26  and  _27
REMARK   13  A    between atoms: _30  and  _32
REMARK   14  A    between atoms: _32  and  _33
REMARK   15  A    between atoms: _32  and  _35
REMARK   16  A    between atoms: _35  and  _36
REMARK   17  A    between atoms: _42  and  _44
REMARK   18  A    between atoms: _44  and  _45
REMARK   19  A    between atoms: _44  and  _47
REMARK   20  A    between atoms: _47  and  _48
REMARK   21  A    between atoms: _51  and  _53
REMARK   22  A    between atoms: _53  and  _54
REMARK   23  A    between atoms: _53  and  _56
REMARK   24  A    between atoms: _56  and  _57
REMARK   25  A    between atoms: _57  and  _59
REMARK   26  A    between atoms: _59  and  ZN_366
REMARK   27  A    between atoms: _60  and  _62
REMARK   28  A    between atoms: _62  and  _63
REMARK   29  A    between atoms: _62  and  _65
REMARK   30  A    between atoms: _65  and  _66
REMARK   31  A    between atoms: _68  and  _70
REMARK   32  A    between atoms: _70  and  _71
REMARK   33  A    between atoms: _70  and  _73
REMARK   34  A    between atoms: _73  and  _74
REMARK   35  A    between atoms: _74  and  _75
REMARK   36  A    between atoms: _78  and  _80
REMARK   37  A    between atoms: _80  and  _81
REMARK   38  A    between atoms: _80  and  _83
REMARK   39  A    between atoms: _83  and  _84
REMARK   40  A    between atoms: _84  and  _85
REMARK   41  A    between atoms: _85  and  _87
REMARK   42  A    between atoms: _87  and  ZN_366
REMARK   43  A    between atoms: _88  and  _90
REMARK   44  A    between atoms: _90  and  _91
REMARK   45  A    between atoms: _94  and  _96
REMARK   46  A    between atoms: _96  and  _97
REMARK   47  A    between atoms: _96  and  _99
REMARK   48  A    between atoms: _99  and  _100
REMARK   49  A    between atoms: _110  and  _112
REMARK   50  A    between atoms: _112  and  _113
REMARK   51  A    between atoms: _112  and  _115
REMARK   52  A    between atoms: _115  and  _116
REMARK   53  A    between atoms: _118  and  _120
REMARK   54  A    between atoms: _120  and  _121
REMARK   55  A    between atoms: _120  and  _123
REMARK   56  A    between atoms: _123  and  _124
REMARK   57  A    between atoms: _127  and  _129
REMARK   58  A    between atoms: _129  and  _130
REMARK   59  A    between atoms: _129  and  _132
REMARK   60  A    between atoms: _132  and  _133
REMARK   61  A    between atoms: _136  and  _138
REMARK   62  A    between atoms: _138  and  _139
REMARK   63  A    between atoms: _138  and  _141
REMARK   64  A    between atoms: _141  and  _142
REMARK   65  A    between atoms: _145  and  _147
REMARK   66  A    between atoms: _147  and  _148
REMARK   67  A    between atoms: _147  and  _150
REMARK   68  A    between atoms: _150  and  _151
REMARK   69  A    between atoms: _154  and  _156
REMARK   70  A    between atoms: _156  and  _157
REMARK   71  A    between atoms: _156  and  _159
REMARK   72  A    between atoms: _159  and  _160
REMARK   73  A    between atoms: _163  and  _165
REMARK   74  A    between atoms: _165  and  _166
REMARK   75  A    between atoms: _165  and  _168
REMARK   76  A    between atoms: _168  and  _169
REMARK   77  A    between atoms: _174  and  _175
REMARK   78  A    between atoms: _177  and  _179
REMARK   79  A    between atoms: _179  and  _180
REMARK   80  A    between atoms: _179  and  _182
REMARK   81  A    between atoms: _182  and  _183
REMARK   82  A    between atoms: _186  and  _188
REMARK   83  A    between atoms: _188  and  _189
REMARK   84  A    between atoms: _191  and  _193
REMARK   85  A    between atoms: _193  and  _194
REMARK   86  A    between atoms: _193  and  _196
REMARK   87  A    between atoms: _196  and  _197
REMARK   88  A    between atoms: _203  and  _205
REMARK   89  A    between atoms: _205  and  _206
REMARK   90  A    between atoms: _205  and  _208
REMARK   91  A    between atoms: _208  and  _209
REMARK   92  A    between atoms: _212  and  _214
REMARK   93  A    between atoms: _214  and  _215
REMARK   94  A    between atoms: _214  and  _217
REMARK   95  A    between atoms: _217  and  _218
REMARK   96  A    between atoms: _218  and  _219
REMARK   97  A    between atoms: _222  and  _224
REMARK   98  A    between atoms: _224  and  _225
REMARK   99  A    between atoms: _224  and  _227
REMARK  100  A    between atoms: _227  and  _228
REMARK  101  A    between atoms: _231  and  _233
REMARK  102  A    between atoms: _233  and  _234
REMARK  103  A    between atoms: _233  and  _236
REMARK  104  A    between atoms: _236  and  _237
REMARK  105  A    between atoms: _240  and  _242
REMARK  106  A    between atoms: _242  and  _243
REMARK  107  A    between atoms: _242  and  _245
REMARK  108  A    between atoms: _245  and  _246
REMARK  109  A    between atoms: _251  and  _253
REMARK  110  A    between atoms: _253  and  _254
REMARK  111  A    between atoms: _253  and  _256
REMARK  112  A    between atoms: _256  and  _257
REMARK  113  A    between atoms: _260  and  _262
REMARK  114  A    between atoms: _262  and  _263
REMARK  115  A    between atoms: _262  and  _265
REMARK  116  A    between atoms: _265  and  _266
REMARK  117  A    between atoms: _271  and  _273
REMARK  118  A    between atoms: _273  and  _274
REMARK  119  A    between atoms: _273  and  _276
REMARK  120  A    between atoms: _276  and  _277
REMARK  121  A    between atoms: _281  and  _282
REMARK  122  A    between atoms: _287  and  _289
REMARK  123  A    between atoms: _289  and  _290
REMARK  124  A    between atoms: _289  and  _292
REMARK  125  A    between atoms: _292  and  _293
REMARK  126  A    between atoms: _296  and  _297
REMARK  127  A    between atoms: _302  and  _304
REMARK  128  A    between atoms: _304  and  _305
REMARK  129  A    between atoms: _304  and  _307
REMARK  130  A    between atoms: _307  and  _308
REMARK  131  A    between atoms: _315  and  _316
REMARK  132  A    between atoms: _321  and  _323
REMARK  133  A    between atoms: _323  and  _324
REMARK  134  A    between atoms: _323  and  _326
REMARK  135  A    between atoms: _326  and  _327
REMARK  136  A    between atoms: _330  and  _332
REMARK  137  A    between atoms: _332  and  _333
REMARK  138  A    between atoms: _332  and  _335
REMARK  139  A    between atoms: _335  and  _336
REMARK  140  A    between atoms: _346  and  _348
REMARK  141  A    between atoms: _348  and  _349
REMARK  142  A    between atoms: _348  and  _351
REMARK  143  A    between atoms: _351  and  _352
REMARK  144  A    between atoms: _356  and  ZN_366
REMARK  145  A    between atoms: _357  and  _359
REMARK  146  A    between atoms: _359  and  _360
REMARK  147  A    between atoms: _359  and  _362
REMARK  148  A    between atoms: _362  and  _363
REMARK                            x       y       z     vdW  Elec       q    Type
REMARK                         _______ _______ _______ _____ _____    ______ ____
ROOT
ATOM      1  O   HOH     1     -15.615  21.758   1.175  0.00  0.00    +0.000 OA
ENDROOT
TORSDOF 0
REMARK  Name = ../refined-set-2016/4mhy/4mhy_pocket.pdb
REMARK  148 active torsions:
REMARK  status: ('A' for Active; 'I' for Inactive)
REMARK    1  A    between atoms: _1  and  _3
REMARK    2  A    between atoms: _3  and  _4
REMARK    3  A    between atoms: _3  and  _6
REMARK    4  A    between atoms: _6  and  _7
REMARK    5  A    between atoms: _12  and  _14
REMARK    6  A    between atoms: _14  and  _15
REMARK    7  A    between atoms: _14  and  _17
REMARK    8  A    between atoms: _17  and  _18
REMARK    9  A    between atoms: _21  and  _23
REMARK   10  A    between atoms: _23  and  _24
REMARK   11  A    between atoms: _23  and  _26
REMARK   12  A    between atoms: _26  and  _27
REMARK   13  A    between atoms: _30  and  _32
REMARK   14  A    between atoms: _32  and  _33
REMARK   15  A    between atoms: _32  and  _35
REMARK   16  A    between atoms: _35  and  _36
REMARK   17  A    between atoms: _42  and  _44
REMARK   18  A    between atoms: _44  and  _45
REMARK   19  A    between atoms: _44  and  _47
REMARK   20  A    between atoms: _47  and  _48
REMARK   21  A    between atoms: _51  and  _53
REMARK   22  A    between atoms: _53  and  _54
REMARK   23  A    between atoms: _53  and  _56
REMARK   24  A    between atoms: _56  and  _57
REMARK   25  A    between atoms: _57  and  _59
REMARK   26  A    between atoms: _59  and  ZN_366
REMARK   27  A    between atoms: _60  and  _62
REMARK   28  A    between atoms: _62  and  _63
REMARK   29  A    between atoms: _62  and  _65
REMARK   30  A    between atoms: _65  and  _66
REMARK   31  A    between atoms: _68  and  _70
REMARK   32  A    between atoms: _70  and  _71
REMARK   33  A    between atoms: _70  and  _73
REMARK   34  A    between atoms: _73  and  _74
REMARK   35  A    between atoms: _74  and  _75
REMARK   36  A    between atoms: _78  and  _80
REMARK   37  A    between atoms: _80  and  _81
REMARK   38  A    between atoms: _80  and  _83
REMARK   39  A    between atoms: _83  and  _84
REMARK   40  A    between atoms: _84  and  _85
REMARK   41  A    between atoms: _85  and  _87
REMARK   42  A    between atoms: _87  and  ZN_366
REMARK   43  A    between atoms: _88  and  _90
REMARK   44  A    between atoms: _90  and  _91
REMARK   45  A    between atoms: _94  and  _96
REMARK   46  A    between atoms: _96  and  _97
REMARK   47  A    between atoms: _96  and  _99
REMARK   48  A    between atoms: _99  and  _100
REMARK   49  A    between atoms: _110  and  _112
REMARK   50  A    between atoms: _112  and  _113
REMARK   51  A    between atoms: _112  and  _115
REMARK   52  A    between atoms: _115  and  _116
REMARK   53  A    between atoms: _118  and  _120
REMARK   54  A    between atoms: _120  and  _121
REMARK   55  A    between atoms: _120  and  _123
REMARK   56  A    between atoms: _123  and  _124
REMARK   57  A    between atoms: _127  and  _129
REMARK   58  A    between atoms: _129  and  _130
REMARK   59  A    between atoms: _129  and  _132
REMARK   60  A    between atoms: _132  and  _133
REMARK   61  A    between atoms: _136  and  _138
REMARK   62  A    between atoms: _138  and  _139
REMARK   63  A    between atoms: _138  and  _141
REMARK   64  A    between atoms: _141  and  _142
REMARK   65  A    between atoms: _145  and  _147
REMARK   66  A    between atoms: _147  and  _148
REMARK   67  A    between atoms: _147  and  _150
REMARK   68  A    between atoms: _150  and  _151
REMARK   69  A    between atoms: _154  and  _156
REMARK   70  A    between atoms: _156  and  _157
REMARK   71  A    between atoms: _156  and  _159
REMARK   72  A    between atoms: _159  and  _160
REMARK   73  A    between atoms: _163  and  _165
REMARK   74  A    between atoms: _165  and  _166
REMARK   75  A    between atoms: _165  and  _168
REMARK   76  A    between atoms: _168  and  _169
REMARK   77  A    between atoms: _174  and  _175
REMARK   78  A    between atoms: _177  and  _179
REMARK   79  A    between atoms: _179  and  _180
REMARK   80  A    between atoms: _179  and  _182
REMARK   81  A    between atoms: _182  and  _183
REMARK   82  A    between atoms: _186  and  _188
REMARK   83  A    between atoms: _188  and  _189
REMARK   84  A    between atoms: _191  and  _193
REMARK   85  A    between atoms: _193  and  _194
REMARK   86  A    between atoms: _193  and  _196
REMARK   87  A    between atoms: _196  and  _197
REMARK   88  A    between atoms: _203  and  _205
REMARK   89  A    between atoms: _205  and  _206
REMARK   90  A    between atoms: _205  and  _208
REMARK   91  A    between atoms: _208  and  _209
REMARK   92  A    between atoms: _212  and  _214
REMARK   93  A    between atoms: _214  and  _215
REMARK   94  A    between atoms: _214  and  _217
REMARK   95  A    between atoms: _217  and  _218
REMARK   96  A    between atoms: _218  and  _219
REMARK   97  A    between atoms: _222  and  _224
REMARK   98  A    between atoms: _224  and  _225
REMARK   99  A    between atoms: _224  and  _227
REMARK  100  A    between atoms: _227  and  _228
REMARK  101  A    between atoms: _231  and  _233
REMARK  102  A    between atoms: _233  and  _234
REMARK  103  A    between atoms: _233  and  _236
REMARK  104  A    between atoms: _236  and  _237
REMARK  105  A    between atoms: _240  and  _242
REMARK  106  A    between atoms: _242  and  _243
REMARK  107  A    between atoms: _242  and  _245
REMARK  108  A    between atoms: _245  and  _246
REMARK  109  A    between atoms: _251  and  _253
REMARK  110  A    between atoms: _253  and  _254
REMARK  111  A    between atoms: _253  and  _256
REMARK  112  A    between atoms: _256  and  _257
REMARK  113  A    between atoms: _260  and  _262
REMARK  114  A    between atoms: _262  and  _263
REMARK  115  A    between atoms: _262  and  _265
REMARK  116  A    between atoms: _265  and  _266
REMARK  117  A    between atoms: _271  and  _273
REMARK  118  A    between atoms: _273  and  _274
REMARK  119  A    between atoms: _273  and  _276
REMARK  120  A    between atoms: _276  and  _277
REMARK  121  A    between atoms: _281  and  _282
REMARK  122  A    between atoms: _287  and  _289
REMARK  123  A    between atoms: _289  and  _290
REMARK  124  A    between atoms: _289  and  _292
REMARK  125  A    between atoms: _292  and  _293
REMARK  126  A    between atoms: _296  and  _297
REMARK  127  A    between atoms: _302  and  _304
REMARK  128  A    between atoms: _304  and  _305
REMARK  129  A    between atoms: _304  and  _307
REMARK  130  A    between atoms: _307  and  _308
REMARK  131  A    between atoms: _315  and  _316
REMARK  132  A    between atoms: _321  and  _323
REMARK  133  A    between atoms: _323  and  _324
REMARK  134  A    between atoms: _323  and  _326
REMARK  135  A    between atoms: _326  and  _327
REMARK  136  A    between atoms: _330  and  _332
REMARK  137  A    between atoms: _332  and  _333
REMARK  138  A    between atoms: _332  and  _335
REMARK  139  A    between atoms: _335  and  _336
REMARK  140  A    between atoms: _346  and  _348
REMARK  141  A    between atoms: _348  and  _349
REMARK  142  A    between atoms: _348  and  _351
REMARK  143  A    between atoms: _351  and  _352
REMARK  144  A    between atoms: _356  and  ZN_366
REMARK  145  A    between atoms: _357  and  _359
REMARK  146  A    between atoms: _359  and  _360
REMARK  147  A    between atoms: _359  and  _362
REMARK  148  A    between atoms: _362  and  _363
REMARK                            x       y       z     vdW  Elec       q    Type
REMARK                         _______ _______ _______ _____ _____    ______ ____
ROOT
ATOM      1  O   HOH     1     -17.170  17.785   4.173  0.00  0.00    +0.000 OA
ENDROOT
TORSDOF 0
REMARK  Name = ../refined-set-2016/4mhy/4mhy_pocket.pdb
REMARK  148 active torsions:
REMARK  status: ('A' for Active; 'I' for Inactive)
REMARK    1  A    between atoms: _1  and  _3
REMARK    2  A    between atoms: _3  and  _4
REMARK    3  A    between atoms: _3  and  _6
REMARK    4  A    between atoms: _6  and  _7
REMARK    5  A    between atoms: _12  and  _14
REMARK    6  A    between atoms: _14  and  _15
REMARK    7  A    between atoms: _14  and  _17
REMARK    8  A    between atoms: _17  and  _18
REMARK    9  A    between atoms: _21  and  _23
REMARK   10  A    between atoms: _23  and  _24
REMARK   11  A    between atoms: _23  and  _26
REMARK   12  A    between atoms: _26  and  _27
REMARK   13  A    between atoms: _30  and  _32
REMARK   14  A    between atoms: _32  and  _33
REMARK   15  A    between atoms: _32  and  _35
REMARK   16  A    between atoms: _35  and  _36
REMARK   17  A    between atoms: _42  and  _44
REMARK   18  A    between atoms: _44  and  _45
REMARK   19  A    between atoms: _44  and  _47
REMARK   20  A    between atoms: _47  and  _48
REMARK   21  A    between atoms: _51  and  _53
REMARK   22  A    between atoms: _53  and  _54
REMARK   23  A    between atoms: _53  and  _56
REMARK   24  A    between atoms: _56  and  _57
REMARK   25  A    between atoms: _57  and  _59
REMARK   26  A    between atoms: _59  and  ZN_366
REMARK   27  A    between atoms: _60  and  _62
REMARK   28  A    between atoms: _62  and  _63
REMARK   29  A    between atoms: _62  and  _65
REMARK   30  A    between atoms: _65  and  _66
REMARK   31  A    between atoms: _68  and  _70
REMARK   32  A    between atoms: _70  and  _71
REMARK   33  A    between atoms: _70  and  _73
REMARK   34  A    between atoms: _73  and  _74
REMARK   35  A    between atoms: _74  and  _75
REMARK   36  A    between atoms: _78  and  _80
REMARK   37  A    between atoms: _80  and  _81
REMARK   38  A    between atoms: _80  and  _83
REMARK   39  A    between atoms: _83  and  _84
REMARK   40  A    between atoms: _84  and  _85
REMARK   41  A    between atoms: _85  and  _87
REMARK   42  A    between atoms: _87  and  ZN_366
REMARK   43  A    between atoms: _88  and  _90
REMARK   44  A    between atoms: _90  and  _91
REMARK   45  A    between atoms: _94  and  _96
REMARK   46  A    between atoms: _96  and  _97
REMARK   47  A    between atoms: _96  and  _99
REMARK   48  A    between atoms: _99  and  _100
REMARK   49  A    between atoms: _110  and  _112
REMARK   50  A    between atoms: _112  and  _113
REMARK   51  A    between atoms: _112  and  _115
REMARK   52  A    between atoms: _115  and  _116
REMARK   53  A    between atoms: _118  and  _120
REMARK   54  A    between atoms: _120  and  _121
REMARK   55  A    between atoms: _120  and  _123
REMARK   56  A    between atoms: _123  and  _124
REMARK   57  A    between atoms: _127  and  _129
REMARK   58  A    between atoms: _129  and  _130
REMARK   59  A    between atoms: _129  and  _132
REMARK   60  A    between atoms: _132  and  _133
REMARK   61  A    between atoms: _136  and  _138
REMARK   62  A    between atoms: _138  and  _139
REMARK   63  A    between atoms: _138  and  _141
REMARK   64  A    between atoms: _141  and  _142
REMARK   65  A    between atoms: _145  and  _147
REMARK   66  A    between atoms: _147  and  _148
REMARK   67  A    between atoms: _147  and  _150
REMARK   68  A    between atoms: _150  and  _151
REMARK   69  A    between atoms: _154  and  _156
REMARK   70  A    between atoms: _156  and  _157
REMARK   71  A    between atoms: _156  and  _159
REMARK   72  A    between atoms: _159  and  _160
REMARK   73  A    between atoms: _163  and  _165
REMARK   74  A    between atoms: _165  and  _166
REMARK   75  A    between atoms: _165  and  _168
REMARK   76  A    between atoms: _168  and  _169
REMARK   77  A    between atoms: _174  and  _175
REMARK   78  A    between atoms: _177  and  _179
REMARK   79  A    between atoms: _179  and  _180
REMARK   80  A    between atoms: _179  and  _182
REMARK   81  A    between atoms: _182  and  _183
REMARK   82  A    between atoms: _186  and  _188
REMARK   83  A    between atoms: _188  and  _189
REMARK   84  A    between atoms: _191  and  _193
REMARK   85  A    between atoms: _193  and  _194
REMARK   86  A    between atoms: _193  and  _196
REMARK   87  A    between atoms: _196  and  _197
REMARK   88  A    between atoms: _203  and  _205
REMARK   89  A    between atoms: _205  and  _206
REMARK   90  A    between atoms: _205  and  _208
REMARK   91  A    between atoms: _208  and  _209
REMARK   92  A    between atoms: _212  and  _214
REMARK   93  A    between atoms: _214  and  _215
REMARK   94  A    between atoms: _214  and  _217
REMARK   95  A    between atoms: _217  and  _218
REMARK   96  A    between atoms: _218  and  _219
REMARK   97  A    between atoms: _222  and  _224
REMARK   98  A    between atoms: _224  and  _225
REMARK   99  A    between atoms: _224  and  _227
REMARK  100  A    between atoms: _227  and  _228
REMARK  101  A    between atoms: _231  and  _233
REMARK  102  A    between atoms: _233  and  _234
REMARK  103  A    between atoms: _233  and  _236
REMARK  104  A    between atoms: _236  and  _237
REMARK  105  A    between atoms: _240  and  _242
REMARK  106  A    between atoms: _242  and  _243
REMARK  107  A    between atoms: _242  and  _245
REMARK  108  A    between atoms: _245  and  _246
REMARK  109  A    between atoms: _251  and  _253
REMARK  110  A    between atoms: _253  and  _254
REMARK  111  A    between atoms: _253  and  _256
REMARK  112  A    between atoms: _256  and  _257
REMARK  113  A    between atoms: _260  and  _262
REMARK  114  A    between atoms: _262  and  _263
REMARK  115  A    between atoms: _262  and  _265
REMARK  116  A    between atoms: _265  and  _266
REMARK  117  A    between atoms: _271  and  _273
REMARK  118  A    between atoms: _273  and  _274
REMARK  119  A    between atoms: _273  and  _276
REMARK  120  A    between atoms: _276  and  _277
REMARK  121  A    between atoms: _281  and  _282
REMARK  122  A    between atoms: _287  and  _289
REMARK  123  A    between atoms: _289  and  _290
REMARK  124  A    between atoms: _289  and  _292
REMARK  125  A    between atoms: _292  and  _293
REMARK  126  A    between atoms: _296  and  _297
REMARK  127  A    between atoms: _302  and  _304
REMARK  128  A    between atoms: _304  and  _305
REMARK  129  A    between atoms: _304  and  _307
REMARK  130  A    between atoms: _307  and  _308
REMARK  131  A    between atoms: _315  and  _316
REMARK  132  A    between atoms: _321  and  _323
REMARK  133  A    between atoms: _323  and  _324
REMARK  134  A    between atoms: _323  and  _326
REMARK  135  A    between atoms: _326  and  _327
REMARK  136  A    between atoms: _330  and  _332
REMARK  137  A    between atoms: _332  and  _333
REMARK  138  A    between atoms: _332  and  _335
REMARK  139  A    between atoms: _335  and  _336
REMARK  140  A    between atoms: _346  and  _348
REMARK  141  A    between atoms: _348  and  _349
REMARK  142  A    between atoms: _348  and  _351
REMARK  143  A    between atoms: _351  and  _352
REMARK  144  A    between atoms: _356  and  ZN_366
REMARK  145  A    between atoms: _357  and  _359
REMARK  146  A    between atoms: _359  and  _360
REMARK  147  A    between atoms: _359  and  _362
REMARK  148  A    between atoms: _362  and  _363
REMARK                            x       y       z     vdW  Elec       q    Type
REMARK                         _______ _______ _______ _____ _____    ______ ____
ROOT
ATOM      1  O   HOH     1     -20.861  22.250   0.971  0.00  0.00    +0.000 OA
ENDROOT
TORSDOF 0
REMARK  Name = ../refined-set-2016/4mhy/4mhy_pocket.pdb
REMARK  148 active torsions:
REMARK  status: ('A' for Active; 'I' for Inactive)
REMARK    1  A    between atoms: _1  and  _3
REMARK    2  A    between atoms: _3  and  _4
REMARK    3  A    between atoms: _3  and  _6
REMARK    4  A    between atoms: _6  and  _7
REMARK    5  A    between atoms: _12  and  _14
REMARK    6  A    between atoms: _14  and  _15
REMARK    7  A    between atoms: _14  and  _17
REMARK    8  A    between atoms: _17  and  _18
REMARK    9  A    between atoms: _21  and  _23
REMARK   10  A    between atoms: _23  and  _24
REMARK   11  A    between atoms: _23  and  _26
REMARK   12  A    between atoms: _26  and  _27
REMARK   13  A    between atoms: _30  and  _32
REMARK   14  A    between atoms: _32  and  _33
REMARK   15  A    between atoms: _32  and  _35
REMARK   16  A    between atoms: _35  and  _36
REMARK   17  A    between atoms: _42  and  _44
REMARK   18  A    between atoms: _44  and  _45
REMARK   19  A    between atoms: _44  and  _47
REMARK   20  A    between atoms: _47  and  _48
REMARK   21  A    between atoms: _51  and  _53
REMARK   22  A    between atoms: _53  and  _54
REMARK   23  A    between atoms: _53  and  _56
REMARK   24  A    between atoms: _56  and  _57
REMARK   25  A    between atoms: _57  and  _59
REMARK   26  A    between atoms: _59  and  ZN_366
REMARK   27  A    between atoms: _60  and  _62
REMARK   28  A    between atoms: _62  and  _63
REMARK   29  A    between atoms: _62  and  _65
REMARK   30  A    between atoms: _65  and  _66
REMARK   31  A    between atoms: _68  and  _70
REMARK   32  A    between atoms: _70  and  _71
REMARK   33  A    between atoms: _70  and  _73
REMARK   34  A    between atoms: _73  and  _74
REMARK   35  A    between atoms: _74  and  _75
REMARK   36  A    between atoms: _78  and  _80
REMARK   37  A    between atoms: _80  and  _81
REMARK   38  A    between atoms: _80  and  _83
REMARK   39  A    between atoms: _83  and  _84
REMARK   40  A    between atoms: _84  and  _85
REMARK   41  A    between atoms: _85  and  _87
REMARK   42  A    between atoms: _87  and  ZN_366
REMARK   43  A    between atoms: _88  and  _90
REMARK   44  A    between atoms: _90  and  _91
REMARK   45  A    between atoms: _94  and  _96
REMARK   46  A    between atoms: _96  and  _97
REMARK   47  A    between atoms: _96  and  _99
REMARK   48  A    between atoms: _99  and  _100
REMARK   49  A    between atoms: _110  and  _112
REMARK   50  A    between atoms: _112  and  _113
REMARK   51  A    between atoms: _112  and  _115
REMARK   52  A    between atoms: _115  and  _116
REMARK   53  A    between atoms: _118  and  _120
REMARK   54  A    between atoms: _120  and  _121
REMARK   55  A    between atoms: _120  and  _123
REMARK   56  A    between atoms: _123  and  _124
REMARK   57  A    between atoms: _127  and  _129
REMARK   58  A    between atoms: _129  and  _130
REMARK   59  A    between atoms: _129  and  _132
REMARK   60  A    between atoms: _132  and  _133
REMARK   61  A    between atoms: _136  and  _138
REMARK   62  A    between atoms: _138  and  _139
REMARK   63  A    between atoms: _138  and  _141
REMARK   64  A    between atoms: _141  and  _142
REMARK   65  A    between atoms: _145  and  _147
REMARK   66  A    between atoms: _147  and  _148
REMARK   67  A    between atoms: _147  and  _150
REMARK   68  A    between atoms: _150  and  _151
REMARK   69  A    between atoms: _154  and  _156
REMARK   70  A    between atoms: _156  and  _157
REMARK   71  A    between atoms: _156  and  _159
REMARK   72  A    between atoms: _159  and  _160
REMARK   73  A    between atoms: _163  and  _165
REMARK   74  A    between atoms: _165  and  _166
REMARK   75  A    between atoms: _165  and  _168
REMARK   76  A    between atoms: _168  and  _169
REMARK   77  A    between atoms: _174  and  _175
REMARK   78  A    between atoms: _177  and  _179
REMARK   79  A    between atoms: _179  and  _180
REMARK   80  A    between atoms: _179  and  _182
REMARK   81  A    between atoms: _182  and  _183
REMARK   82  A    between atoms: _186  and  _188
REMARK   83  A    between atoms: _188  and  _189
REMARK   84  A    between atoms: _191  and  _193
REMARK   85  A    between atoms: _193  and  _194
REMARK   86  A    between atoms: _193  and  _196
REMARK   87  A    between atoms: _196  and  _197
REMARK   88  A    between atoms: _203  and  _205
REMARK   89  A    between atoms: _205  and  _206
REMARK   90  A    between atoms: _205  and  _208
REMARK   91  A    between atoms: _208  and  _209
REMARK   92  A    between atoms: _212  and  _214
REMARK   93  A    between atoms: _214  and  _215
REMARK   94  A    between atoms: _214  and  _217
REMARK   95  A    between atoms: _217  and  _218
REMARK   96  A    between atoms: _218  and  _219
REMARK   97  A    between atoms: _222  and  _224
REMARK   98  A    between atoms: _224  and  _225
REMARK   99  A    between atoms: _224  and  _227
REMARK  100  A    between atoms: _227  and  _228
REMARK  101  A    between atoms: _231  and  _233
REMARK  102  A    between atoms: _233  and  _234
REMARK  103  A    between atoms: _233  and  _236
REMARK  104  A    between atoms: _236  and  _237
REMARK  105  A    between atoms: _240  and  _242
REMARK  106  A    between atoms: _242  and  _243
REMARK  107  A    between atoms: _242  and  _245
REMARK  108  A    between atoms: _245  and  _246
REMARK  109  A    between atoms: _251  and  _253
REMARK  110  A    between atoms: _253  and  _254
REMARK  111  A    between atoms: _253  and  _256
REMARK  112  A    between atoms: _256  and  _257
REMARK  113  A    between atoms: _260  and  _262
REMARK  114  A    between atoms: _262  and  _263
REMARK  115  A    between atoms: _262  and  _265
REMARK  116  A    between atoms: _265  and  _266
REMARK  117  A    between atoms: _271  and  _273
REMARK  118  A    between atoms: _273  and  _274
REMARK  119  A    between atoms: _273  and  _276
REMARK  120  A    between atoms: _276  and  _277
REMARK  121  A    between atoms: _281  and  _282
REMARK  122  A    between atoms: _287  and  _289
REMARK  123  A    between atoms: _289  and  _290
REMARK  124  A    between atoms: _289  and  _292
REMARK  125  A    between atoms: _292  and  _293
REMARK  126  A    between atoms: _296  and  _297
REMARK  127  A    between atoms: _302  and  _304
REMARK  128  A    between atoms: _304  and  _305
REMARK  129  A    between atoms: _304  and  _307
REMARK  130  A    between atoms: _307  and  _308
REMARK  131  A    between atoms: _315  and  _316
REMARK  132  A    between atoms: _321  and  _323
REMARK  133  A    between atoms: _323  and  _324
REMARK  134  A    between atoms: _323  and  _326
REMARK  135  A    between atoms: _326  and  _327
REMARK  136  A    between atoms: _330  and  _332
REMARK  137  A    between atoms: _332  and  _333
REMARK  138  A    between atoms: _332  and  _335
REMARK  139  A    between atoms: _335  and  _336
REMARK  140  A    between atoms: _346  and  _348
REMARK  141  A    between atoms: _348  and  _349
REMARK  142  A    between atoms: _348  and  _351
REMARK  143  A    between atoms: _351  and  _352
REMARK  144  A    between atoms: _356  and  ZN_366
REMARK  145  A    between atoms: _357  and  _359
REMARK  146  A    between atoms: _359  and  _360
REMARK  147  A    between atoms: _359  and  _362
REMARK  148  A    between atoms: _362  and  _363
REMARK                            x       y       z     vdW  Elec       q    Type
REMARK                         _______ _______ _______ _____ _____    ______ ____
ROOT
ATOM      1  O   HOH     1     -25.075  23.908  -6.099  0.00  0.00    +0.000 OA
ENDROOT
TORSDOF 0
REMARK  Name = ../refined-set-2016/4mhy/4mhy_pocket.pdb
REMARK  148 active torsions:
REMARK  status: ('A' for Active; 'I' for Inactive)
REMARK    1  A    between atoms: _1  and  _3
REMARK    2  A    between atoms: _3  and  _4
REMARK    3  A    between atoms: _3  and  _6
REMARK    4  A    between atoms: _6  and  _7
REMARK    5  A    between atoms: _12  and  _14
REMARK    6  A    between atoms: _14  and  _15
REMARK    7  A    between atoms: _14  and  _17
REMARK    8  A    between atoms: _17  and  _18
REMARK    9  A    between atoms: _21  and  _23
REMARK   10  A    between atoms: _23  and  _24
REMARK   11  A    between atoms: _23  and  _26
REMARK   12  A    between atoms: _26  and  _27
REMARK   13  A    between atoms: _30  and  _32
REMARK   14  A    between atoms: _32  and  _33
REMARK   15  A    between atoms: _32  and  _35
REMARK   16  A    between atoms: _35  and  _36
REMARK   17  A    between atoms: _42  and  _44
REMARK   18  A    between atoms: _44  and  _45
REMARK   19  A    between atoms: _44  and  _47
REMARK   20  A    between atoms: _47  and  _48
REMARK   21  A    between atoms: _51  and  _53
REMARK   22  A    between atoms: _53  and  _54
REMARK   23  A    between atoms: _53  and  _56
REMARK   24  A    between atoms: _56  and  _57
REMARK   25  A    between atoms: _57  and  _59
REMARK   26  A    between atoms: _59  and  ZN_366
REMARK   27  A    between atoms: _60  and  _62
REMARK   28  A    between atoms: _62  and  _63
REMARK   29  A    between atoms: _62  and  _65
REMARK   30  A    between atoms: _65  and  _66
REMARK   31  A    between atoms: _68  and  _70
REMARK   32  A    between atoms: _70  and  _71
REMARK   33  A    between atoms: _70  and  _73
REMARK   34  A    between atoms: _73  and  _74
REMARK   35  A    between atoms: _74  and  _75
REMARK   36  A    between atoms: _78  and  _80
REMARK   37  A    between atoms: _80  and  _81
REMARK   38  A    between atoms: _80  and  _83
REMARK   39  A    between atoms: _83  and  _84
REMARK   40  A    between atoms: _84  and  _85
REMARK   41  A    between atoms: _85  and  _87
REMARK   42  A    between atoms: _87  and  ZN_366
REMARK   43  A    between atoms: _88  and  _90
REMARK   44  A    between atoms: _90  and  _91
REMARK   45  A    between atoms: _94  and  _96
REMARK   46  A    between atoms: _96  and  _97
REMARK   47  A    between atoms: _96  and  _99
REMARK   48  A    between atoms: _99  and  _100
REMARK   49  A    between atoms: _110  and  _112
REMARK   50  A    between atoms: _112  and  _113
REMARK   51  A    between atoms: _112  and  _115
REMARK   52  A    between atoms: _115  and  _116
REMARK   53  A    between atoms: _118  and  _120
REMARK   54  A    between atoms: _120  and  _121
REMARK   55  A    between atoms: _120  and  _123
REMARK   56  A    between atoms: _123  and  _124
REMARK   57  A    between atoms: _127  and  _129
REMARK   58  A    between atoms: _129  and  _130
REMARK   59  A    between atoms: _129  and  _132
REMARK   60  A    between atoms: _132  and  _133
REMARK   61  A    between atoms: _136  and  _138
REMARK   62  A    between atoms: _138  and  _139
REMARK   63  A    between atoms: _138  and  _141
REMARK   64  A    between atoms: _141  and  _142
REMARK   65  A    between atoms: _145  and  _147
REMARK   66  A    between atoms: _147  and  _148
REMARK   67  A    between atoms: _147  and  _150
REMARK   68  A    between atoms: _150  and  _151
REMARK   69  A    between atoms: _154  and  _156
REMARK   70  A    between atoms: _156  and  _157
REMARK   71  A    between atoms: _156  and  _159
REMARK   72  A    between atoms: _159  and  _160
REMARK   73  A    between atoms: _163  and  _165
REMARK   74  A    between atoms: _165  and  _166
REMARK   75  A    between atoms: _165  and  _168
REMARK   76  A    between atoms: _168  and  _169
REMARK   77  A    between atoms: _174  and  _175
REMARK   78  A    between atoms: _177  and  _179
REMARK   79  A    between atoms: _179  and  _180
REMARK   80  A    between atoms: _179  and  _182
REMARK   81  A    between atoms: _182  and  _183
REMARK   82  A    between atoms: _186  and  _188
REMARK   83  A    between atoms: _188  and  _189
REMARK   84  A    between atoms: _191  and  _193
REMARK   85  A    between atoms: _193  and  _194
REMARK   86  A    between atoms: _193  and  _196
REMARK   87  A    between atoms: _196  and  _197
REMARK   88  A    between atoms: _203  and  _205
REMARK   89  A    between atoms: _205  and  _206
REMARK   90  A    between atoms: _205  and  _208
REMARK   91  A    between atoms: _208  and  _209
REMARK   92  A    between atoms: _212  and  _214
REMARK   93  A    between atoms: _214  and  _215
REMARK   94  A    between atoms: _214  and  _217
REMARK   95  A    between atoms: _217  and  _218
REMARK   96  A    between atoms: _218  and  _219
REMARK   97  A    between atoms: _222  and  _224
REMARK   98  A    between atoms: _224  and  _225
REMARK   99  A    between atoms: _224  and  _227
REMARK  100  A    between atoms: _227  and  _228
REMARK  101  A    between atoms: _231  and  _233
REMARK  102  A    between atoms: _233  and  _234
REMARK  103  A    between atoms: _233  and  _236
REMARK  104  A    between atoms: _236  and  _237
REMARK  105  A    between atoms: _240  and  _242
REMARK  106  A    between atoms: _242  and  _243
REMARK  107  A    between atoms: _242  and  _245
REMARK  108  A    between atoms: _245  and  _246
REMARK  109  A    between atoms: _251  and  _253
REMARK  110  A    between atoms: _253  and  _254
REMARK  111  A    between atoms: _253  and  _256
REMARK  112  A    between atoms: _256  and  _257
REMARK  113  A    between atoms: _260  and  _262
REMARK  114  A    between atoms: _262  and  _263
REMARK  115  A    between atoms: _262  and  _265
REMARK  116  A    between atoms: _265  and  _266
REMARK  117  A    between atoms: _271  and  _273
REMARK  118  A    between atoms: _273  and  _274
REMARK  119  A    between atoms: _273  and  _276
REMARK  120  A    between atoms: _276  and  _277
REMARK  121  A    between atoms: _281  and  _282
REMARK  122  A    between atoms: _287  and  _289
REMARK  123  A    between atoms: _289  and  _290
REMARK  124  A    between atoms: _289  and  _292
REMARK  125  A    between atoms: _292  and  _293
REMARK  126  A    between atoms: _296  and  _297
REMARK  127  A    between atoms: _302  and  _304
REMARK  128  A    between atoms: _304  and  _305
REMARK  129  A    between atoms: _304  and  _307
REMARK  130  A    between atoms: _307  and  _308
REMARK  131  A    between atoms: _315  and  _316
REMARK  132  A    between atoms: _321  and  _323
REMARK  133  A    between atoms: _323  and  _324
REMARK  134  A    between atoms: _323  and  _326
REMARK  135  A    between atoms: _326  and  _327
REMARK  136  A    between atoms: _330  and  _332
REMARK  137  A    between atoms: _332  and  _333
REMARK  138  A    between atoms: _332  and  _335
REMARK  139  A    between atoms: _335  and  _336
REMARK  140  A    between atoms: _346  and  _348
REMARK  141  A    between atoms: _348  and  _349
REMARK  142  A    between atoms: _348  and  _351
REMARK  143  A    between atoms: _351  and  _352
REMARK  144  A    between atoms: _356  and  ZN_366
REMARK  145  A    between atoms: _357  and  _359
REMARK  146  A    between atoms: _359  and  _360
REMARK  147  A    between atoms: _359  and  _362
REMARK  148  A    between atoms: _362  and  _363
REMARK                            x       y       z     vdW  Elec       q    Type
REMARK                         _______ _______ _______ _____ _____    ______ ____
ROOT
ATOM      1  O   HOH     1     -25.010  21.474 -13.358  0.00  0.00    +0.000 OA
ENDROOT
TORSDOF 0
REMARK  Name = ../refined-set-2016/4mhy/4mhy_pocket.pdb
REMARK  148 active torsions:
REMARK  status: ('A' for Active; 'I' for Inactive)
REMARK    1  A    between atoms: _1  and  _3
REMARK    2  A    between atoms: _3  and  _4
REMARK    3  A    between atoms: _3  and  _6
REMARK    4  A    between atoms: _6  and  _7
REMARK    5  A    between atoms: _12  and  _14
REMARK    6  A    between atoms: _14  and  _15
REMARK    7  A    between atoms: _14  and  _17
REMARK    8  A    between atoms: _17  and  _18
REMARK    9  A    between atoms: _21  and  _23
REMARK   10  A    between atoms: _23  and  _24
REMARK   11  A    between atoms: _23  and  _26
REMARK   12  A    between atoms: _26  and  _27
REMARK   13  A    between atoms: _30  and  _32
REMARK   14  A    between atoms: _32  and  _33
REMARK   15  A    between atoms: _32  and  _35
REMARK   16  A    between atoms: _35  and  _36
REMARK   17  A    between atoms: _42  and  _44
REMARK   18  A    between atoms: _44  and  _45
REMARK   19  A    between atoms: _44  and  _47
REMARK   20  A    between atoms: _47  and  _48
REMARK   21  A    between atoms: _51  and  _53
REMARK   22  A    between atoms: _53  and  _54
REMARK   23  A    between atoms: _53  and  _56
REMARK   24  A    between atoms: _56  and  _57
REMARK   25  A    between atoms: _57  and  _59
REMARK   26  A    between atoms: _59  and  ZN_366
REMARK   27  A    between atoms: _60  and  _62
REMARK   28  A    between atoms: _62  and  _63
REMARK   29  A    between atoms: _62  and  _65
REMARK   30  A    between atoms: _65  and  _66
REMARK   31  A    between atoms: _68  and  _70
REMARK   32  A    between atoms: _70  and  _71
REMARK   33  A    between atoms: _70  and  _73
REMARK   34  A    between atoms: _73  and  _74
REMARK   35  A    between atoms: _74  and  _75
REMARK   36  A    between atoms: _78  and  _80
REMARK   37  A    between atoms: _80  and  _81
REMARK   38  A    between atoms: _80  and  _83
REMARK   39  A    between atoms: _83  and  _84
REMARK   40  A    between atoms: _84  and  _85
REMARK   41  A    between atoms: _85  and  _87
REMARK   42  A    between atoms: _87  and  ZN_366
REMARK   43  A    between atoms: _88  and  _90
REMARK   44  A    between atoms: _90  and  _91
REMARK   45  A    between atoms: _94  and  _96
REMARK   46  A    between atoms: _96  and  _97
REMARK   47  A    between atoms: _96  and  _99
REMARK   48  A    between atoms: _99  and  _100
REMARK   49  A    between atoms: _110  and  _112
REMARK   50  A    between atoms: _112  and  _113
REMARK   51  A    between atoms: _112  and  _115
REMARK   52  A    between atoms: _115  and  _116
REMARK   53  A    between atoms: _118  and  _120
REMARK   54  A    between atoms: _120  and  _121
REMARK   55  A    between atoms: _120  and  _123
REMARK   56  A    between atoms: _123  and  _124
REMARK   57  A    between atoms: _127  and  _129
REMARK   58  A    between atoms: _129  and  _130
REMARK   59  A    between atoms: _129  and  _132
REMARK   60  A    between atoms: _132  and  _133
REMARK   61  A    between atoms: _136  and  _138
REMARK   62  A    between atoms: _138  and  _139
REMARK   63  A    between atoms: _138  and  _141
REMARK   64  A    between atoms: _141  and  _142
REMARK   65  A    between atoms: _145  and  _147
REMARK   66  A    between atoms: _147  and  _148
REMARK   67  A    between atoms: _147  and  _150
REMARK   68  A    between atoms: _150  and  _151
REMARK   69  A    between atoms: _154  and  _156
REMARK   70  A    between atoms: _156  and  _157
REMARK   71  A    between atoms: _156  and  _159
REMARK   72  A    between atoms: _159  and  _160
REMARK   73  A    between atoms: _163  and  _165
REMARK   74  A    between atoms: _165  and  _166
REMARK   75  A    between atoms: _165  and  _168
REMARK   76  A    between atoms: _168  and  _169
REMARK   77  A    between atoms: _174  and  _175
REMARK   78  A    between atoms: _177  and  _179
REMARK   79  A    between atoms: _179  and  _180
REMARK   80  A    between atoms: _179  and  _182
REMARK   81  A    between atoms: _182  and  _183
REMARK   82  A    between atoms: _186  and  _188
REMARK   83  A    between atoms: _188  and  _189
REMARK   84  A    between atoms: _191  and  _193
REMARK   85  A    between atoms: _193  and  _194
REMARK   86  A    between atoms: _193  and  _196
REMARK   87  A    between atoms: _196  and  _197
REMARK   88  A    between atoms: _203  and  _205
REMARK   89  A    between atoms: _205  and  _206
REMARK   90  A    between atoms: _205  and  _208
REMARK   91  A    between atoms: _208  and  _209
REMARK   92  A    between atoms: _212  and  _214
REMARK   93  A    between atoms: _214  and  _215
REMARK   94  A    between atoms: _214  and  _217
REMARK   95  A    between atoms: _217  and  _218
REMARK   96  A    between atoms: _218  and  _219
REMARK   97  A    between atoms: _222  and  _224
REMARK   98  A    between atoms: _224  and  _225
REMARK   99  A    between atoms: _224  and  _227
REMARK  100  A    between atoms: _227  and  _228
REMARK  101  A    between atoms: _231  and  _233
REMARK  102  A    between atoms: _233  and  _234
REMARK  103  A    between atoms: _233  and  _236
REMARK  104  A    between atoms: _236  and  _237
REMARK  105  A    between atoms: _240  and  _242
REMARK  106  A    between atoms: _242  and  _243
REMARK  107  A    between atoms: _242  and  _245
REMARK  108  A    between atoms: _245  and  _246
REMARK  109  A    between atoms: _251  and  _253
REMARK  110  A    between atoms: _253  and  _254
REMARK  111  A    between atoms: _253  and  _256
REMARK  112  A    between atoms: _256  and  _257
REMARK  113  A    between atoms: _260  and  _262
REMARK  114  A    between atoms: _262  and  _263
REMARK  115  A    between atoms: _262  and  _265
REMARK  116  A    between atoms: _265  and  _266
REMARK  117  A    between atoms: _271  and  _273
REMARK  118  A    between atoms: _273  and  _274
REMARK  119  A    between atoms: _273  and  _276
REMARK  120  A    between atoms: _276  and  _277
REMARK  121  A    between atoms: _281  and  _282
REMARK  122  A    between atoms: _287  and  _289
REMARK  123  A    between atoms: _289  and  _290
REMARK  124  A    between atoms: _289  and  _292
REMARK  125  A    between atoms: _292  and  _293
REMARK  126  A    between atoms: _296  and  _297
REMARK  127  A    between atoms: _302  and  _304
REMARK  128  A    between atoms: _304  and  _305
REMARK  129  A    between atoms: _304  and  _307
REMARK  130  A    between atoms: _307  and  _308
REMARK  131  A    between atoms: _315  and  _316
REMARK  132  A    between atoms: _321  and  _323
REMARK  133  A    between atoms: _323  and  _324
REMARK  134  A    between atoms: _323  and  _326
REMARK  135  A    between atoms: _326  and  _327
REMARK  136  A    between atoms: _330  and  _332
REMARK  137  A    between atoms: _332  and  _333
REMARK  138  A    between atoms: _332  and  _335
REMARK  139  A    between atoms: _335  and  _336
REMARK  140  A    between atoms: _346  and  _348
REMARK  141  A    between atoms: _348  and  _349
REMARK  142  A    between atoms: _348  and  _351
REMARK  143  A    between atoms: _351  and  _352
REMARK  144  A    between atoms: _356  and  ZN_366
REMARK  145  A    between atoms: _357  and  _359
REMARK  146  A    between atoms: _359  and  _360
REMARK  147  A    between atoms: _359  and  _362
REMARK  148  A    between atoms: _362  and  _363
REMARK                            x       y       z     vdW  Elec       q    Type
REMARK                         _______ _______ _______ _____ _____    ______ ____
ROOT
ATOM      1  O   HOH     1     -18.188  27.779 -11.724  0.00  0.00    +0.000 OA
ENDROOT
TORSDOF 0
REMARK  Name = ../refined-set-2016/4mhy/4mhy_pocket.pdb
REMARK  148 active torsions:
REMARK  status: ('A' for Active; 'I' for Inactive)
REMARK    1  A    between atoms: _1  and  _3
REMARK    2  A    between atoms: _3  and  _4
REMARK    3  A    between atoms: _3  and  _6
REMARK    4  A    between atoms: _6  and  _7
REMARK    5  A    between atoms: _12  and  _14
REMARK    6  A    between atoms: _14  and  _15
REMARK    7  A    between atoms: _14  and  _17
REMARK    8  A    between atoms: _17  and  _18
REMARK    9  A    between atoms: _21  and  _23
REMARK   10  A    between atoms: _23  and  _24
REMARK   11  A    between atoms: _23  and  _26
REMARK   12  A    between atoms: _26  and  _27
REMARK   13  A    between atoms: _30  and  _32
REMARK   14  A    between atoms: _32  and  _33
REMARK   15  A    between atoms: _32  and  _35
REMARK   16  A    between atoms: _35  and  _36
REMARK   17  A    between atoms: _42  and  _44
REMARK   18  A    between atoms: _44  and  _45
REMARK   19  A    between atoms: _44  and  _47
REMARK   20  A    between atoms: _47  and  _48
REMARK   21  A    between atoms: _51  and  _53
REMARK   22  A    between atoms: _53  and  _54
REMARK   23  A    between atoms: _53  and  _56
REMARK   24  A    between atoms: _56  and  _57
REMARK   25  A    between atoms: _57  and  _59
REMARK   26  A    between atoms: _59  and  ZN_366
REMARK   27  A    between atoms: _60  and  _62
REMARK   28  A    between atoms: _62  and  _63
REMARK   29  A    between atoms: _62  and  _65
REMARK   30  A    between atoms: _65  and  _66
REMARK   31  A    between atoms: _68  and  _70
REMARK   32  A    between atoms: _70  and  _71
REMARK   33  A    between atoms: _70  and  _73
REMARK   34  A    between atoms: _73  and  _74
REMARK   35  A    between atoms: _74  and  _75
REMARK   36  A    between atoms: _78  and  _80
REMARK   37  A    between atoms: _80  and  _81
REMARK   38  A    between atoms: _80  and  _83
REMARK   39  A    between atoms: _83  and  _84
REMARK   40  A    between atoms: _84  and  _85
REMARK   41  A    between atoms: _85  and  _87
REMARK   42  A    between atoms: _87  and  ZN_366
REMARK   43  A    between atoms: _88  and  _90
REMARK   44  A    between atoms: _90  and  _91
REMARK   45  A    between atoms: _94  and  _96
REMARK   46  A    between atoms: _96  and  _97
REMARK   47  A    between atoms: _96  and  _99
REMARK   48  A    between atoms: _99  and  _100
REMARK   49  A    between atoms: _110  and  _112
REMARK   50  A    between atoms: _112  and  _113
REMARK   51  A    between atoms: _112  and  _115
REMARK   52  A    between atoms: _115  and  _116
REMARK   53  A    between atoms: _118  and  _120
REMARK   54  A    between atoms: _120  and  _121
REMARK   55  A    between atoms: _120  and  _123
REMARK   56  A    between atoms: _123  and  _124
REMARK   57  A    between atoms: _127  and  _129
REMARK   58  A    between atoms: _129  and  _130
REMARK   59  A    between atoms: _129  and  _132
REMARK   60  A    between atoms: _132  and  _133
REMARK   61  A    between atoms: _136  and  _138
REMARK   62  A    between atoms: _138  and  _139
REMARK   63  A    between atoms: _138  and  _141
REMARK   64  A    between atoms: _141  and  _142
REMARK   65  A    between atoms: _145  and  _147
REMARK   66  A    between atoms: _147  and  _148
REMARK   67  A    between atoms: _147  and  _150
REMARK   68  A    between atoms: _150  and  _151
REMARK   69  A    between atoms: _154  and  _156
REMARK   70  A    between atoms: _156  and  _157
REMARK   71  A    between atoms: _156  and  _159
REMARK   72  A    between atoms: _159  and  _160
REMARK   73  A    between atoms: _163  and  _165
REMARK   74  A    between atoms: _165  and  _166
REMARK   75  A    between atoms: _165  and  _168
REMARK   76  A    between atoms: _168  and  _169
REMARK   77  A    between atoms: _174  and  _175
REMARK   78  A    between atoms: _177  and  _179
REMARK   79  A    between atoms: _179  and  _180
REMARK   80  A    between atoms: _179  and  _182
REMARK   81  A    between atoms: _182  and  _183
REMARK   82  A    between atoms: _186  and  _188
REMARK   83  A    between atoms: _188  and  _189
REMARK   84  A    between atoms: _191  and  _193
REMARK   85  A    between atoms: _193  and  _194
REMARK   86  A    between atoms: _193  and  _196
REMARK   87  A    between atoms: _196  and  _197
REMARK   88  A    between atoms: _203  and  _205
REMARK   89  A    between atoms: _205  and  _206
REMARK   90  A    between atoms: _205  and  _208
REMARK   91  A    between atoms: _208  and  _209
REMARK   92  A    between atoms: _212  and  _214
REMARK   93  A    between atoms: _214  and  _215
REMARK   94  A    between atoms: _214  and  _217
REMARK   95  A    between atoms: _217  and  _218
REMARK   96  A    between atoms: _218  and  _219
REMARK   97  A    between atoms: _222  and  _224
REMARK   98  A    between atoms: _224  and  _225
REMARK   99  A    between atoms: _224  and  _227
REMARK  100  A    between atoms: _227  and  _228
REMARK  101  A    between atoms: _231  and  _233
REMARK  102  A    between atoms: _233  and  _234
REMARK  103  A    between atoms: _233  and  _236
REMARK  104  A    between atoms: _236  and  _237
REMARK  105  A    between atoms: _240  and  _242
REMARK  106  A    between atoms: _242  and  _243
REMARK  107  A    between atoms: _242  and  _245
REMARK  108  A    between atoms: _245  and  _246
REMARK  109  A    between atoms: _251  and  _253
REMARK  110  A    between atoms: _253  and  _254
REMARK  111  A    between atoms: _253  and  _256
REMARK  112  A    between atoms: _256  and  _257
REMARK  113  A    between atoms: _260  and  _262
REMARK  114  A    between atoms: _262  and  _263
REMARK  115  A    between atoms: _262  and  _265
REMARK  116  A    between atoms: _265  and  _266
REMARK  117  A    between atoms: _271  and  _273
REMARK  118  A    between atoms: _273  and  _274
REMARK  119  A    between atoms: _273  and  _276
REMARK  120  A    between atoms: _276  and  _277
REMARK  121  A    between atoms: _281  and  _282
REMARK  122  A    between atoms: _287  and  _289
REMARK  123  A    between atoms: _289  and  _290
REMARK  124  A    between atoms: _289  and  _292
REMARK  125  A    between atoms: _292  and  _293
REMARK  126  A    between atoms: _296  and  _297
REMARK  127  A    between atoms: _302  and  _304
REMARK  128  A    between atoms: _304  and  _305
REMARK  129  A    between atoms: _304  and  _307
REMARK  130  A    between atoms: _307  and  _308
REMARK  131  A    between atoms: _315  and  _316
REMARK  132  A    between atoms: _321  and  _323
REMARK  133  A    between atoms: _323  and  _324
REMARK  134  A    between atoms: _323  and  _326
REMARK  135  A    between atoms: _326  and  _327
REMARK  136  A    between atoms: _330  and  _332
REMARK  137  A    between atoms: _332  and  _333
REMARK  138  A    between atoms: _332  and  _335
REMARK  139  A    between atoms: _335  and  _336
REMARK  140  A    between atoms: _346  and  _348
REMARK  141  A    between atoms: _348  and  _349
REMARK  142  A    between atoms: _348  and  _351
REMARK  143  A    between atoms: _351  and  _352
REMARK  144  A    between atoms: _356  and  ZN_366
REMARK  145  A    between atoms: _357  and  _359
REMARK  146  A    between atoms: _359  and  _360
REMARK  147  A    between atoms: _359  and  _362
REMARK  148  A    between atoms: _362  and  _363
REMARK                            x       y       z     vdW  Elec       q    Type
REMARK                         _______ _______ _______ _____ _____    ______ ____
ROOT
ATOM      1  O   HOH     1     -20.601  29.184 -12.637  0.00  0.00    +0.000 OA
ENDROOT
TORSDOF 0
REMARK  Name = ../refined-set-2016/4mhy/4mhy_pocket.pdb
REMARK  148 active torsions:
REMARK  status: ('A' for Active; 'I' for Inactive)
REMARK    1  A    between atoms: _1  and  _3
REMARK    2  A    between atoms: _3  and  _4
REMARK    3  A    between atoms: _3  and  _6
REMARK    4  A    between atoms: _6  and  _7
REMARK    5  A    between atoms: _12  and  _14
REMARK    6  A    between atoms: _14  and  _15
REMARK    7  A    between atoms: _14  and  _17
REMARK    8  A    between atoms: _17  and  _18
REMARK    9  A    between atoms: _21  and  _23
REMARK   10  A    between atoms: _23  and  _24
REMARK   11  A    between atoms: _23  and  _26
REMARK   12  A    between atoms: _26  and  _27
REMARK   13  A    between atoms: _30  and  _32
REMARK   14  A    between atoms: _32  and  _33
REMARK   15  A    between atoms: _32  and  _35
REMARK   16  A    between atoms: _35  and  _36
REMARK   17  A    between atoms: _42  and  _44
REMARK   18  A    between atoms: _44  and  _45
REMARK   19  A    between atoms: _44  and  _47
REMARK   20  A    between atoms: _47  and  _48
REMARK   21  A    between atoms: _51  and  _53
REMARK   22  A    between atoms: _53  and  _54
REMARK   23  A    between atoms: _53  and  _56
REMARK   24  A    between atoms: _56  and  _57
REMARK   25  A    between atoms: _57  and  _59
REMARK   26  A    between atoms: _59  and  ZN_366
REMARK   27  A    between atoms: _60  and  _62
REMARK   28  A    between atoms: _62  and  _63
REMARK   29  A    between atoms: _62  and  _65
REMARK   30  A    between atoms: _65  and  _66
REMARK   31  A    between atoms: _68  and  _70
REMARK   32  A    between atoms: _70  and  _71
REMARK   33  A    between atoms: _70  and  _73
REMARK   34  A    between atoms: _73  and  _74
REMARK   35  A    between atoms: _74  and  _75
REMARK   36  A    between atoms: _78  and  _80
REMARK   37  A    between atoms: _80  and  _81
REMARK   38  A    between atoms: _80  and  _83
REMARK   39  A    between atoms: _83  and  _84
REMARK   40  A    between atoms: _84  and  _85
REMARK   41  A    between atoms: _85  and  _87
REMARK   42  A    between atoms: _87  and  ZN_366
REMARK   43  A    between atoms: _88  and  _90
REMARK   44  A    between atoms: _90  and  _91
REMARK   45  A    between atoms: _94  and  _96
REMARK   46  A    between atoms: _96  and  _97
REMARK   47  A    between atoms: _96  and  _99
REMARK   48  A    between atoms: _99  and  _100
REMARK   49  A    between atoms: _110  and  _112
REMARK   50  A    between atoms: _112  and  _113
REMARK   51  A    between atoms: _112  and  _115
REMARK   52  A    between atoms: _115  and  _116
REMARK   53  A    between atoms: _118  and  _120
REMARK   54  A    between atoms: _120  and  _121
REMARK   55  A    between atoms: _120  and  _123
REMARK   56  A    between atoms: _123  and  _124
REMARK   57  A    between atoms: _127  and  _129
REMARK   58  A    between atoms: _129  and  _130
REMARK   59  A    between atoms: _129  and  _132
REMARK   60  A    between atoms: _132  and  _133
REMARK   61  A    between atoms: _136  and  _138
REMARK   62  A    between atoms: _138  and  _139
REMARK   63  A    between atoms: _138  and  _141
REMARK   64  A    between atoms: _141  and  _142
REMARK   65  A    between atoms: _145  and  _147
REMARK   66  A    between atoms: _147  and  _148
REMARK   67  A    between atoms: _147  and  _150
REMARK   68  A    between atoms: _150  and  _151
REMARK   69  A    between atoms: _154  and  _156
REMARK   70  A    between atoms: _156  and  _157
REMARK   71  A    between atoms: _156  and  _159
REMARK   72  A    between atoms: _159  and  _160
REMARK   73  A    between atoms: _163  and  _165
REMARK   74  A    between atoms: _165  and  _166
REMARK   75  A    between atoms: _165  and  _168
REMARK   76  A    between atoms: _168  and  _169
REMARK   77  A    between atoms: _174  and  _175
REMARK   78  A    between atoms: _177  and  _179
REMARK   79  A    between atoms: _179  and  _180
REMARK   80  A    between atoms: _179  and  _182
REMARK   81  A    between atoms: _182  and  _183
REMARK   82  A    between atoms: _186  and  _188
REMARK   83  A    between atoms: _188  and  _189
REMARK   84  A    between atoms: _191  and  _193
REMARK   85  A    between atoms: _193  and  _194
REMARK   86  A    between atoms: _193  and  _196
REMARK   87  A    between atoms: _196  and  _197
REMARK   88  A    between atoms: _203  and  _205
REMARK   89  A    between atoms: _205  and  _206
REMARK   90  A    between atoms: _205  and  _208
REMARK   91  A    between atoms: _208  and  _209
REMARK   92  A    between atoms: _212  and  _214
REMARK   93  A    between atoms: _214  and  _215
REMARK   94  A    between atoms: _214  and  _217
REMARK   95  A    between atoms: _217  and  _218
REMARK   96  A    between atoms: _218  and  _219
REMARK   97  A    between atoms: _222  and  _224
REMARK   98  A    between atoms: _224  and  _225
REMARK   99  A    between atoms: _224  and  _227
REMARK  100  A    between atoms: _227  and  _228
REMARK  101  A    between atoms: _231  and  _233
REMARK  102  A    between atoms: _233  and  _234
REMARK  103  A    between atoms: _233  and  _236
REMARK  104  A    between atoms: _236  and  _237
REMARK  105  A    between atoms: _240  and  _242
REMARK  106  A    between atoms: _242  and  _243
REMARK  107  A    between atoms: _242  and  _245
REMARK  108  A    between atoms: _245  and  _246
REMARK  109  A    between atoms: _251  and  _253
REMARK  110  A    between atoms: _253  and  _254
REMARK  111  A    between atoms: _253  and  _256
REMARK  112  A    between atoms: _256  and  _257
REMARK  113  A    between atoms: _260  and  _262
REMARK  114  A    between atoms: _262  and  _263
REMARK  115  A    between atoms: _262  and  _265
REMARK  116  A    between atoms: _265  and  _266
REMARK  117  A    between atoms: _271  and  _273
REMARK  118  A    between atoms: _273  and  _274
REMARK  119  A    between atoms: _273  and  _276
REMARK  120  A    between atoms: _276  and  _277
REMARK  121  A    between atoms: _281  and  _282
REMARK  122  A    between atoms: _287  and  _289
REMARK  123  A    between atoms: _289  and  _290
REMARK  124  A    between atoms: _289  and  _292
REMARK  125  A    between atoms: _292  and  _293
REMARK  126  A    between atoms: _296  and  _297
REMARK  127  A    between atoms: _302  and  _304
REMARK  128  A    between atoms: _304  and  _305
REMARK  129  A    between atoms: _304  and  _307
REMARK  130  A    between atoms: _307  and  _308
REMARK  131  A    between atoms: _315  and  _316
REMARK  132  A    between atoms: _321  and  _323
REMARK  133  A    between atoms: _323  and  _324
REMARK  134  A    between atoms: _323  and  _326
REMARK  135  A    between atoms: _326  and  _327
REMARK  136  A    between atoms: _330  and  _332
REMARK  137  A    between atoms: _332  and  _333
REMARK  138  A    between atoms: _332  and  _335
REMARK  139  A    between atoms: _335  and  _336
REMARK  140  A    between atoms: _346  and  _348
REMARK  141  A    between atoms: _348  and  _349
REMARK  142  A    between atoms: _348  and  _351
REMARK  143  A    between atoms: _351  and  _352
REMARK  144  A    between atoms: _356  and  ZN_366
REMARK  145  A    between atoms: _357  and  _359
REMARK  146  A    between atoms: _359  and  _360
REMARK  147  A    between atoms: _359  and  _362
REMARK  148  A    between atoms: _362  and  _363
REMARK                            x       y       z     vdW  Elec       q    Type
REMARK                         _______ _______ _______ _____ _____    ______ ____
ROOT
ATOM      1  O   HOH     1     -26.849  20.212  -7.423  0.00  0.00    +0.000 OA
ENDROOT
TORSDOF 0
