REMARK  Name = ../refined-set-2016/4a6s/4a6s_pocket.pdb
REMARK  79 active torsions:
REMARK  status: ('A' for Active; 'I' for Inactive)
REMARK    1  A    between atoms: _1  and  _3
REMARK    2  A    between atoms: _3  and  _4
REMARK    3  A    between atoms: _3  and  _6
REMARK    4  A    between atoms: _6  and  _7
REMARK    5  A    between atoms: _9  and  _11
REMARK    6  A    between atoms: _11  and  _12
REMARK    7  A    between atoms: _11  and  _14
REMARK    8  A    between atoms: _14  and  _15
REMARK    9  A    between atoms: _20  and  _21
REMARK   10  A    between atoms: _23  and  _25
REMARK   11  A    between atoms: _25  and  _26
REMARK   12  A    between atoms: _29  and  _30
REMARK   13  A    between atoms: _35  and  _37
REMARK   14  A    between atoms: _37  and  _38
REMARK   15  A    between atoms: _37  and  _40
REMARK   16  A    between atoms: _40  and  _41
REMARK   17  A    between atoms: _44  and  _46
REMARK   18  A    between atoms: _46  and  _47
REMARK   19  A    between atoms: _46  and  _49
REMARK   20  A    between atoms: _49  and  _50
REMARK   21  A    between atoms: _60  and  _62
REMARK   22  A    between atoms: _62  and  _63
REMARK   23  A    between atoms: _62  and  _65
REMARK   24  A    between atoms: _65  and  _66
REMARK   25  A    between atoms: _69  and  _71
REMARK   26  A    between atoms: _71  and  _72
REMARK   27  A    between atoms: _71  and  _74
REMARK   28  A    between atoms: _74  and  _75
REMARK   29  A    between atoms: _81  and  _82
REMARK   30  A    between atoms: _87  and  _89
REMARK   31  A    between atoms: _89  and  _90
REMARK   32  A    between atoms: _89  and  _92
REMARK   33  A    between atoms: _92  and  _93
REMARK   34  A    between atoms: _96  and  _98
REMARK   35  A    between atoms: _98  and  _99
REMARK   36  A    between atoms: _98  and  _101
REMARK   37  A    between atoms: _101  and  _102
REMARK   38  A    between atoms: _102  and  _103
REMARK   39  A    between atoms: _108  and  _110
REMARK   40  A    between atoms: _110  and  _111
REMARK   41  A    between atoms: _113  and  _115
REMARK   42  A    between atoms: _115  and  _116
REMARK   43  A    between atoms: _115  and  _118
REMARK   44  A    between atoms: _118  and  _119
REMARK   45  A    between atoms: _122  and  _124
REMARK   46  A    between atoms: _124  and  _125
REMARK   47  A    between atoms: _124  and  _127
REMARK   48  A    between atoms: _129  and  _131
REMARK   49  A    between atoms: _131  and  _132
REMARK   50  A    between atoms: _134  and  _136
REMARK   51  A    between atoms: _136  and  _137
REMARK   52  A    between atoms: _136  and  _139
REMARK   53  A    between atoms: _139  and  _140
REMARK   54  A    between atoms: _145  and  _146
REMARK   55  A    between atoms: _148  and  _150
REMARK   56  A    between atoms: _150  and  _151
REMARK   57  A    between atoms: _150  and  _153
REMARK   58  A    between atoms: _153  and  _154
REMARK   59  A    between atoms: _159  and  _161
REMARK   60  A    between atoms: _161  and  _162
REMARK   61  A    between atoms: _161  and  _164
REMARK   62  A    between atoms: _164  and  _165
REMARK   63  A    between atoms: _168  and  _170
REMARK   64  A    between atoms: _170  and  _171
REMARK   65  A    between atoms: _170  and  _173
REMARK   66  A    between atoms: _177  and  _178
REMARK   67  A    between atoms: _183  and  _185
REMARK   68  A    between atoms: _185  and  _186
REMARK   69  A    between atoms: _188  and  _190
REMARK   70  A    between atoms: _190  and  _191
REMARK   71  A    between atoms: _190  and  _193
REMARK   72  A    between atoms: _193  and  _194
REMARK   73  A    between atoms: _199  and  _202
REMARK   74  A    between atoms: _202  and  _203
REMARK   75  A    between atoms: _208  and  _209
REMARK   76  A    between atoms: _218  and  _221
REMARK   77  A    between atoms: _221  and  _222
REMARK   78  A    between atoms: _229  and  _230
REMARK   79  A    between atoms: _233  and  _235
REMARK                            x       y       z     vdW  Elec       q    Type
REMARK                         _______ _______ _______ _____ _____    ______ ____
ROOT
ATOM      1  C   TYR A   2       8.353  14.918  65.549  0.00  0.00    +0.241 C 
ATOM      2  N   GLY A   3       7.524  15.351  66.512  0.00  0.00    -0.295 N 
ATOM      3  H   GLY A   3       6.710  15.948  66.263  0.00  0.00    +0.150 HD
ATOM      4  O   TYR A   2       9.346  14.251  65.816  0.00  0.00    -0.273 OA
ENDROOT
BRANCH   2   5
ATOM      5  CA  GLY A   3       7.764  14.981  67.936  0.00  0.00    +0.176 C 
BRANCH   5   6
ATOM      6  C   GLY A   3       7.497  16.085  68.960  0.00  0.00    +0.246 C 
ATOM      7  O   GLY A   3       6.652  15.929  69.870  0.00  0.00    -0.273 OA
ATOM      8  N   PRO A   4       8.205  17.219  68.815  0.00  0.00    -0.272 N 
ATOM      9  CA  PRO A   4       7.958  18.410  69.592  0.00  0.00    +0.152 C 
ATOM     10  CB  PRO A   4       8.707  19.483  68.821  0.00  0.00    +0.031 C 
ATOM     11  CG  PRO A   4       9.847  18.780  68.216  0.00  0.00    +0.024 C 
ATOM     12  CD  PRO A   4       9.289  17.430  67.835  0.00  0.00    +0.094 C 
BRANCH   9  13
ATOM     13  C   PRO A   4       6.490  18.772  69.672  0.00  0.00    +0.241 C 
ATOM     14  N   THR A   5       6.179  19.567  70.691  0.00  0.00    -0.296 N 
ATOM     15  H   THR A   5       6.946  19.837  71.340  0.00  0.00    +0.150 HD
ATOM     16  O   PRO A   4       5.684  18.322  68.860  0.00  0.00    -0.273 OA
BRANCH  14  17
ATOM     17  CA  THR A   5       4.840  20.092  70.971  0.00  0.00    +0.164 C 
BRANCH  17  18
ATOM     18  C   THR A   5       4.311  21.032  69.894  0.00  0.00    +0.229 C 
ATOM     19  O   THR A   5       3.112  21.102  69.654  0.00  0.00    -0.286 OA
ENDBRANCH  17  18
BRANCH  17  20
ATOM     20  CB  THR A   5       4.880  20.976  72.249  0.00  0.00    +0.136 C 
ATOM     21  CG2 THR A   5       3.542  20.914  73.015  0.00  0.00    +0.034 C 
BRANCH  20  22
ATOM     22  OG1 THR A   5       5.998  20.592  73.070  0.00  0.00    -0.382 OA
ATOM     23  HG1 THR A   5       6.838  20.714  72.560  0.00  0.00    +0.210 HD
ENDBRANCH  20  22
ENDBRANCH  17  20
ENDBRANCH  14  17
ENDBRANCH   9  13
ENDBRANCH   5   6
ENDBRANCH   2   5
BRANCH   1  24
ATOM     24  CA  TYR A   2       8.001  15.258  64.059  0.00  0.00    +0.153 C 
BRANCH  24  27
ATOM     25  C   SER A   1       5.734  16.111  64.101  0.00  0.00    +0.241 C 
ATOM     26  O   SER A   1       5.211  14.972  64.180  0.00  0.00    -0.274 OA
ATOM     27  N   TYR A   2       7.035  16.319  63.908  0.00  0.00    -0.297 N 
ATOM     28  H   TYR A   2       7.363  17.269  63.642  0.00  0.00    +0.150 HD
BRANCH  25  29
ATOM     29  CA  SER A   1       4.879  17.367  64.203  0.00  0.00    +0.174 C 
BRANCH  29  30
ATOM     30  N   SER A   1       3.648  17.198  63.454  0.00  0.00    -0.236 NA
ATOM     31  H   SER A   1       3.153  16.284  63.496  0.00  0.00    +0.142 HD
ENDBRANCH  29  30
BRANCH  29  32
ATOM     32  CB  SER A   1       4.594  17.683  65.677  0.00  0.00    +0.163 C 
BRANCH  32  33
ATOM     33  OG  SER A   1       5.791  17.558  66.426  0.00  0.00    -0.380 OA
ATOM     34  H   SER A   1       5.607  17.762  67.377  0.00  0.00    +0.211 HD
ENDBRANCH  32  33
ENDBRANCH  29  32
ENDBRANCH  25  29
ENDBRANCH  24  27
BRANCH  24  35
ATOM     35  CB  TYR A   2       9.242  15.619  63.285  0.00  0.00    +0.055 C 
BRANCH  35  36
ATOM     36  CG  TYR A   2       9.828  16.964  63.684  0.00  0.00    -0.020 A 
ATOM     37  CD2 TYR A   2      10.934  17.033  64.527  0.00  0.00    -0.001 A 
ATOM     38  CE2 TYR A   2      11.491  18.244  64.911  0.00  0.00    +0.036 A 
ATOM     39  CZ  TYR A   2      10.952  19.420  64.439  0.00  0.00    +0.134 A 
ATOM     40  CE1 TYR A   2       9.868  19.390  63.581  0.00  0.00    +0.036 A 
ATOM     41  CD1 TYR A   2       9.305  18.154  63.205  0.00  0.00    -0.001 A 
BRANCH  39  42
ATOM     42  OH  TYR A   2      11.555  20.605  64.785  0.00  0.00    -0.506 OA
ATOM     43  HH  TYR A   2      11.060  21.358  64.375  0.00  0.00    +0.292 HD
ENDBRANCH  39  42
ENDBRANCH  35  36
ENDBRANCH  24  35
ENDBRANCH   1  24
TORSDOF 16
REMARK  Name = ../refined-set-2016/4a6s/4a6s_pocket.pdb
REMARK  79 active torsions:
REMARK  status: ('A' for Active; 'I' for Inactive)
REMARK    1  A    between atoms: _1  and  _3
REMARK    2  A    between atoms: _3  and  _4
REMARK    3  A    between atoms: _3  and  _6
REMARK    4  A    between atoms: _6  and  _7
REMARK    5  A    between atoms: _9  and  _11
REMARK    6  A    between atoms: _11  and  _12
REMARK    7  A    between atoms: _11  and  _14
REMARK    8  A    between atoms: _14  and  _15
REMARK    9  A    between atoms: _20  and  _21
REMARK   10  A    between atoms: _23  and  _25
REMARK   11  A    between atoms: _25  and  _26
REMARK   12  A    between atoms: _29  and  _30
REMARK   13  A    between atoms: _35  and  _37
REMARK   14  A    between atoms: _37  and  _38
REMARK   15  A    between atoms: _37  and  _40
REMARK   16  A    between atoms: _40  and  _41
REMARK   17  A    between atoms: _44  and  _46
REMARK   18  A    between atoms: _46  and  _47
REMARK   19  A    between atoms: _46  and  _49
REMARK   20  A    between atoms: _49  and  _50
REMARK   21  A    between atoms: _60  and  _62
REMARK   22  A    between atoms: _62  and  _63
REMARK   23  A    between atoms: _62  and  _65
REMARK   24  A    between atoms: _65  and  _66
REMARK   25  A    between atoms: _69  and  _71
REMARK   26  A    between atoms: _71  and  _72
REMARK   27  A    between atoms: _71  and  _74
REMARK   28  A    between atoms: _74  and  _75
REMARK   29  A    between atoms: _81  and  _82
REMARK   30  A    between atoms: _87  and  _89
REMARK   31  A    between atoms: _89  and  _90
REMARK   32  A    between atoms: _89  and  _92
REMARK   33  A    between atoms: _92  and  _93
REMARK   34  A    between atoms: _96  and  _98
REMARK   35  A    between atoms: _98  and  _99
REMARK   36  A    between atoms: _98  and  _101
REMARK   37  A    between atoms: _101  and  _102
REMARK   38  A    between atoms: _102  and  _103
REMARK   39  A    between atoms: _108  and  _110
REMARK   40  A    between atoms: _110  and  _111
REMARK   41  A    between atoms: _113  and  _115
REMARK   42  A    between atoms: _115  and  _116
REMARK   43  A    between atoms: _115  and  _118
REMARK   44  A    between atoms: _118  and  _119
REMARK   45  A    between atoms: _122  and  _124
REMARK   46  A    between atoms: _124  and  _125
REMARK   47  A    between atoms: _124  and  _127
REMARK   48  A    between atoms: _129  and  _131
REMARK   49  A    between atoms: _131  and  _132
REMARK   50  A    between atoms: _134  and  _136
REMARK   51  A    between atoms: _136  and  _137
REMARK   52  A    between atoms: _136  and  _139
REMARK   53  A    between atoms: _139  and  _140
REMARK   54  A    between atoms: _145  and  _146
REMARK   55  A    between atoms: _148  and  _150
REMARK   56  A    between atoms: _150  and  _151
REMARK   57  A    between atoms: _150  and  _153
REMARK   58  A    between atoms: _153  and  _154
REMARK   59  A    between atoms: _159  and  _161
REMARK   60  A    between atoms: _161  and  _162
REMARK   61  A    between atoms: _161  and  _164
REMARK   62  A    between atoms: _164  and  _165
REMARK   63  A    between atoms: _168  and  _170
REMARK   64  A    between atoms: _170  and  _171
REMARK   65  A    between atoms: _170  and  _173
REMARK   66  A    between atoms: _177  and  _178
REMARK   67  A    between atoms: _183  and  _185
REMARK   68  A    between atoms: _185  and  _186
REMARK   69  A    between atoms: _188  and  _190
REMARK   70  A    between atoms: _190  and  _191
REMARK   71  A    between atoms: _190  and  _193
REMARK   72  A    between atoms: _193  and  _194
REMARK   73  A    between atoms: _199  and  _202
REMARK   74  A    between atoms: _202  and  _203
REMARK   75  A    between atoms: _208  and  _209
REMARK   76  A    between atoms: _218  and  _221
REMARK   77  A    between atoms: _221  and  _222
REMARK   78  A    between atoms: _229  and  _230
REMARK   79  A    between atoms: _233  and  _235
REMARK                            x       y       z     vdW  Elec       q    Type
REMARK                         _______ _______ _______ _____ _____    ______ ____
ROOT
ATOM      1  CG  TRP A   1       6.735  22.971  62.099  0.00  0.00    -0.002 A 
ATOM      2  CD2 TRP A   1       7.128  22.323  63.367  0.00  0.00    +0.013 A 
ATOM      3  CE3 TRP A   1       6.822  21.114  63.996  0.00  0.00    +0.001 A 
ATOM      4  CZ3 TRP A   1       7.417  20.841  65.245  0.00  0.00    +0.000 A 
ATOM      5  CH2 TRP A   1       8.327  21.736  65.831  0.00  0.00    +0.001 A 
ATOM      6  CZ2 TRP A   1       8.669  22.951  65.223  0.00  0.00    +0.017 A 
ATOM      7  CE2 TRP A   1       8.088  23.224  63.993  0.00  0.00    +0.056 A 
ATOM      8  NE1 TRP A   1       8.217  24.286  63.174  0.00  0.00    -0.352 N 
ATOM      9  HE1 TRP A   1       8.832  25.103  63.363  0.00  0.00    +0.166 HD
ATOM     10  CD1 TRP A   1       7.436  24.150  62.066  0.00  0.00    +0.068 A 
ENDROOT
BRANCH   1  11
ATOM     11  CB  TRP A   1       5.792  22.461  61.063  0.00  0.00    +0.053 C 
BRANCH  11  12
ATOM     12  CA  TRP A   1       4.370  22.851  61.359  0.00  0.00    +0.137 C 
BRANCH  12  13
ATOM     13  N   TRP A   1       3.952  22.154  62.590  0.00  0.00    -0.239 NA
ATOM     14  H   TRP A   1       3.893  21.116  62.559  0.00  0.00    +0.142 HD
ENDBRANCH  12  13
BRANCH  12  15
ATOM     15  C   TRP A   1       3.525  22.410  60.197  0.00  0.00    +0.224 C 
ATOM     16  O   TRP A   1       2.996  21.304  60.197  0.00  0.00    -0.287 OA
ENDBRANCH  12  15
ENDBRANCH  11  12
ENDBRANCH   1  11
TORSDOF 4
REMARK  Name = ../refined-set-2016/4a6s/4a6s_pocket.pdb
REMARK  79 active torsions:
REMARK  status: ('A' for Active; 'I' for Inactive)
REMARK    1  A    between atoms: _1  and  _3
REMARK    2  A    between atoms: _3  and  _4
REMARK    3  A    between atoms: _3  and  _6
REMARK    4  A    between atoms: _6  and  _7
REMARK    5  A    between atoms: _9  and  _11
REMARK    6  A    between atoms: _11  and  _12
REMARK    7  A    between atoms: _11  and  _14
REMARK    8  A    between atoms: _14  and  _15
REMARK    9  A    between atoms: _20  and  _21
REMARK   10  A    between atoms: _23  and  _25
REMARK   11  A    between atoms: _25  and  _26
REMARK   12  A    between atoms: _29  and  _30
REMARK   13  A    between atoms: _35  and  _37
REMARK   14  A    between atoms: _37  and  _38
REMARK   15  A    between atoms: _37  and  _40
REMARK   16  A    between atoms: _40  and  _41
REMARK   17  A    between atoms: _44  and  _46
REMARK   18  A    between atoms: _46  and  _47
REMARK   19  A    between atoms: _46  and  _49
REMARK   20  A    between atoms: _49  and  _50
REMARK   21  A    between atoms: _60  and  _62
REMARK   22  A    between atoms: _62  and  _63
REMARK   23  A    between atoms: _62  and  _65
REMARK   24  A    between atoms: _65  and  _66
REMARK   25  A    between atoms: _69  and  _71
REMARK   26  A    between atoms: _71  and  _72
REMARK   27  A    between atoms: _71  and  _74
REMARK   28  A    between atoms: _74  and  _75
REMARK   29  A    between atoms: _81  and  _82
REMARK   30  A    between atoms: _87  and  _89
REMARK   31  A    between atoms: _89  and  _90
REMARK   32  A    between atoms: _89  and  _92
REMARK   33  A    between atoms: _92  and  _93
REMARK   34  A    between atoms: _96  and  _98
REMARK   35  A    between atoms: _98  and  _99
REMARK   36  A    between atoms: _98  and  _101
REMARK   37  A    between atoms: _101  and  _102
REMARK   38  A    between atoms: _102  and  _103
REMARK   39  A    between atoms: _108  and  _110
REMARK   40  A    between atoms: _110  and  _111
REMARK   41  A    between atoms: _113  and  _115
REMARK   42  A    between atoms: _115  and  _116
REMARK   43  A    between atoms: _115  and  _118
REMARK   44  A    between atoms: _118  and  _119
REMARK   45  A    between atoms: _122  and  _124
REMARK   46  A    between atoms: _124  and  _125
REMARK   47  A    between atoms: _124  and  _127
REMARK   48  A    between atoms: _129  and  _131
REMARK   49  A    between atoms: _131  and  _132
REMARK   50  A    between atoms: _134  and  _136
REMARK   51  A    between atoms: _136  and  _137
REMARK   52  A    between atoms: _136  and  _139
REMARK   53  A    between atoms: _139  and  _140
REMARK   54  A    between atoms: _145  and  _146
REMARK   55  A    between atoms: _148  and  _150
REMARK   56  A    between atoms: _150  and  _151
REMARK   57  A    between atoms: _150  and  _153
REMARK   58  A    between atoms: _153  and  _154
REMARK   59  A    between atoms: _159  and  _161
REMARK   60  A    between atoms: _161  and  _162
REMARK   61  A    between atoms: _161  and  _164
REMARK   62  A    between atoms: _164  and  _165
REMARK   63  A    between atoms: _168  and  _170
REMARK   64  A    between atoms: _170  and  _171
REMARK   65  A    between atoms: _170  and  _173
REMARK   66  A    between atoms: _177  and  _178
REMARK   67  A    between atoms: _183  and  _185
REMARK   68  A    between atoms: _185  and  _186
REMARK   69  A    between atoms: _188  and  _190
REMARK   70  A    between atoms: _190  and  _191
REMARK   71  A    between atoms: _190  and  _193
REMARK   72  A    between atoms: _193  and  _194
REMARK   73  A    between atoms: _199  and  _202
REMARK   74  A    between atoms: _202  and  _203
REMARK   75  A    between atoms: _208  and  _209
REMARK   76  A    between atoms: _218  and  _221
REMARK   77  A    between atoms: _221  and  _222
REMARK   78  A    between atoms: _229  and  _230
REMARK   79  A    between atoms: _233  and  _235
REMARK                            x       y       z     vdW  Elec       q    Type
REMARK                         _______ _______ _______ _____ _____    ______ ____
ROOT
ATOM      1  CA  ASP A   1      10.468  23.310  60.183  0.00  0.00    +0.144 C 
ENDROOT
BRANCH   1   2
ATOM      2  N   ASP A   1       9.841  22.409  59.254  0.00  0.00    -0.239 NA
ATOM      3  H   ASP A   1      10.267  21.468  59.134  0.00  0.00    +0.142 HD
ENDBRANCH   1   2
BRANCH   1   4
ATOM      4  C   ASP A   1      11.827  23.838  59.702  0.00  0.00    +0.225 C 
ATOM      5  O   ASP A   1      12.851  23.183  59.809  0.00  0.00    -0.287 OA
ENDBRANCH   1   4
BRANCH   1   6
ATOM      6  CB  ASP A   1      10.614  22.580  61.502  0.00  0.00    +0.139 C 
BRANCH   6   7
ATOM      7  CG  ASP A   1      11.270  23.411  62.557  0.00  0.00    +0.367 C 
ATOM      8  OD2 ASP A   1      11.594  22.821  63.614  0.00  0.00    -0.246 OA
ATOM      9  OD1 ASP A   1      11.486  24.613  62.309  0.00  0.00    -0.246 OA
ENDBRANCH   6   7
ENDBRANCH   1   6
TORSDOF 4
REMARK  Name = ../refined-set-2016/4a6s/4a6s_pocket.pdb
REMARK  79 active torsions:
REMARK  status: ('A' for Active; 'I' for Inactive)
REMARK    1  A    between atoms: _1  and  _3
REMARK    2  A    between atoms: _3  and  _4
REMARK    3  A    between atoms: _3  and  _6
REMARK    4  A    between atoms: _6  and  _7
REMARK    5  A    between atoms: _9  and  _11
REMARK    6  A    between atoms: _11  and  _12
REMARK    7  A    between atoms: _11  and  _14
REMARK    8  A    between atoms: _14  and  _15
REMARK    9  A    between atoms: _20  and  _21
REMARK   10  A    between atoms: _23  and  _25
REMARK   11  A    between atoms: _25  and  _26
REMARK   12  A    between atoms: _29  and  _30
REMARK   13  A    between atoms: _35  and  _37
REMARK   14  A    between atoms: _37  and  _38
REMARK   15  A    between atoms: _37  and  _40
REMARK   16  A    between atoms: _40  and  _41
REMARK   17  A    between atoms: _44  and  _46
REMARK   18  A    between atoms: _46  and  _47
REMARK   19  A    between atoms: _46  and  _49
REMARK   20  A    between atoms: _49  and  _50
REMARK   21  A    between atoms: _60  and  _62
REMARK   22  A    between atoms: _62  and  _63
REMARK   23  A    between atoms: _62  and  _65
REMARK   24  A    between atoms: _65  and  _66
REMARK   25  A    between atoms: _69  and  _71
REMARK   26  A    between atoms: _71  and  _72
REMARK   27  A    between atoms: _71  and  _74
REMARK   28  A    between atoms: _74  and  _75
REMARK   29  A    between atoms: _81  and  _82
REMARK   30  A    between atoms: _87  and  _89
REMARK   31  A    between atoms: _89  and  _90
REMARK   32  A    between atoms: _89  and  _92
REMARK   33  A    between atoms: _92  and  _93
REMARK   34  A    between atoms: _96  and  _98
REMARK   35  A    between atoms: _98  and  _99
REMARK   36  A    between atoms: _98  and  _101
REMARK   37  A    between atoms: _101  and  _102
REMARK   38  A    between atoms: _102  and  _103
REMARK   39  A    between atoms: _108  and  _110
REMARK   40  A    between atoms: _110  and  _111
REMARK   41  A    between atoms: _113  and  _115
REMARK   42  A    between atoms: _115  and  _116
REMARK   43  A    between atoms: _115  and  _118
REMARK   44  A    between atoms: _118  and  _119
REMARK   45  A    between atoms: _122  and  _124
REMARK   46  A    between atoms: _124  and  _125
REMARK   47  A    between atoms: _124  and  _127
REMARK   48  A    between atoms: _129  and  _131
REMARK   49  A    between atoms: _131  and  _132
REMARK   50  A    between atoms: _134  and  _136
REMARK   51  A    between atoms: _136  and  _137
REMARK   52  A    between atoms: _136  and  _139
REMARK   53  A    between atoms: _139  and  _140
REMARK   54  A    between atoms: _145  and  _146
REMARK   55  A    between atoms: _148  and  _150
REMARK   56  A    between atoms: _150  and  _151
REMARK   57  A    between atoms: _150  and  _153
REMARK   58  A    between atoms: _153  and  _154
REMARK   59  A    between atoms: _159  and  _161
REMARK   60  A    between atoms: _161  and  _162
REMARK   61  A    between atoms: _161  and  _164
REMARK   62  A    between atoms: _164  and  _165
REMARK   63  A    between atoms: _168  and  _170
REMARK   64  A    between atoms: _170  and  _171
REMARK   65  A    between atoms: _170  and  _173
REMARK   66  A    between atoms: _177  and  _178
REMARK   67  A    between atoms: _183  and  _185
REMARK   68  A    between atoms: _185  and  _186
REMARK   69  A    between atoms: _188  and  _190
REMARK   70  A    between atoms: _190  and  _191
REMARK   71  A    between atoms: _190  and  _193
REMARK   72  A    between atoms: _193  and  _194
REMARK   73  A    between atoms: _199  and  _202
REMARK   74  A    between atoms: _202  and  _203
REMARK   75  A    between atoms: _208  and  _209
REMARK   76  A    between atoms: _218  and  _221
REMARK   77  A    between atoms: _221  and  _222
REMARK   78  A    between atoms: _229  and  _230
REMARK   79  A    between atoms: _233  and  _235
REMARK                            x       y       z     vdW  Elec       q    Type
REMARK                         _______ _______ _______ _____ _____    ______ ____
ROOT
ATOM      1  C   ASP A   3      19.738  16.614  59.476  0.00  0.00    +0.241 C 
ATOM      2  N   GLN A   4      19.139  15.714  60.245  0.00  0.00    -0.297 N 
ATOM      3  H   GLN A   4      18.103  15.725  60.337  0.00  0.00    +0.150 HD
ATOM      4  O   ASP A   3      20.954  16.635  59.322  0.00  0.00    -0.273 OA
ENDROOT
BRANCH   2   5
ATOM      5  CA  GLN A   4      19.919  14.704  60.967  0.00  0.00    +0.149 C 
BRANCH   5   6
ATOM      6  C   GLN A   4      19.829  13.302  60.319  0.00  0.00    +0.241 C 
ATOM      7  O   GLN A   4      19.797  12.252  61.037  0.00  0.00    -0.273 OA
ATOM      8  N   GLY A   5      19.811  13.306  58.984  0.00  0.00    -0.295 N 
ATOM      9  H   GLY A   5      19.981  14.208  58.495  0.00  0.00    +0.150 HD
BRANCH   8  10
ATOM     10  CA  GLY A   5      19.564  12.104  58.162  0.00  0.00    +0.176 C 
BRANCH  10  11
ATOM     11  C   GLY A   5      18.099  11.883  57.757  0.00  0.00    +0.243 C 
ATOM     12  O   GLY A   5      17.523  10.807  57.981  0.00  0.00    -0.273 OA
ATOM     13  N   LEU A   6      17.499  12.901  57.153  0.00  0.00    -0.298 N 
ATOM     14  H   LEU A   6      18.040  13.773  56.985  0.00  0.00    +0.150 HD
BRANCH  13  15
ATOM     15  CA  LEU A   6      16.104  12.840  56.715  0.00  0.00    +0.137 C 
BRANCH  15  16
ATOM     16  C   LEU A   6      16.009  12.081  55.385  0.00  0.00    +0.227 C 
ATOM     17  O   LEU A   6      16.939  12.148  54.565  0.00  0.00    -0.286 OA
ENDBRANCH  15  16
BRANCH  15  18
ATOM     18  CB  LEU A   6      15.585  14.271  56.498  0.00  0.00    +0.028 C 
BRANCH  18  19
ATOM     19  CG  LEU A   6      15.580  15.237  57.699  0.00  0.00    +0.002 C 
ATOM     20  CD2 LEU A   6      14.479  14.819  58.644  0.00  0.00    +0.000 C 
ATOM     21  CD1 LEU A   6      15.329  16.647  57.191  0.00  0.00    +0.000 C 
ENDBRANCH  18  19
ENDBRANCH  15  18
ENDBRANCH  13  15
ENDBRANCH  10  11
ENDBRANCH   8  10
ENDBRANCH   5   6
BRANCH   5  22
ATOM     22  CB  GLN A   4      19.479  14.670  62.430  0.00  0.00    +0.039 C 
BRANCH  22  23
ATOM     23  CG  GLN A   4      20.658  14.656  63.387  0.00  0.00    +0.087 C 
BRANCH  23  24
ATOM     24  CD  GLN A   4      21.559  15.871  63.165  0.00  0.00    +0.219 C 
ATOM     25  NE2 GLN A   4      22.891  15.673  63.263  0.00  0.00    -0.329 N 
ATOM     26 HE21 GLN A   4      23.261  14.725  63.479  0.00  0.00    +0.145 HD
ATOM     27 HE22 GLN A   4      23.547  16.468  63.123  0.00  0.00    +0.145 HD
ATOM     28  OE1 GLN A   4      21.058  16.982  62.909  0.00  0.00    -0.275 OA
ENDBRANCH  23  24
ENDBRANCH  22  23
ENDBRANCH   5  22
ENDBRANCH   2   5
BRANCH   1  29
ATOM     29  CA  ASP A   3      18.850  17.671  58.809  0.00  0.00    +0.160 C 
BRANCH  29  32
ATOM     30  C   PRO A   2      18.415  19.315  60.579  0.00  0.00    +0.241 C 
ATOM     31  O   PRO A   2      17.549  18.630  61.143  0.00  0.00    -0.273 OA
ATOM     32  N   ASP A   3      19.086  18.943  59.486  0.00  0.00    -0.297 N 
ATOM     33  H   ASP A   3      19.807  19.586  59.101  0.00  0.00    +0.150 HD
BRANCH  30  39
ATOM     34  C   HIS A   1      16.502  21.535  61.493  0.00  0.00    +0.242 C 
ATOM     35  N   PRO A   2      17.684  21.129  62.006  0.00  0.00    -0.272 N 
ATOM     36  CD  PRO A   2      18.048  20.934  63.419  0.00  0.00    +0.094 C 
ATOM     37  CG  PRO A   2      19.527  21.225  63.382  0.00  0.00    +0.024 C 
ATOM     38  CB  PRO A   2      19.937  20.494  62.118  0.00  0.00    +0.031 C 
ATOM     39  CA  PRO A   2      18.770  20.673  61.149  0.00  0.00    +0.152 C 
ATOM     40  O   HIS A   1      16.256  21.433  60.321  0.00  0.00    -0.273 OA
BRANCH  34  41
ATOM     41  CA  HIS A   1      15.460  22.111  62.422  0.00  0.00    +0.151 C 
BRANCH  41  42
ATOM     42  N   HIS A   1      14.911  23.388  61.941  0.00  0.00    -0.238 NA
ATOM     43  H   HIS A   1      14.032  23.399  61.385  0.00  0.00    +0.142 HD
ENDBRANCH  41  42
BRANCH  41  44
ATOM     44  CB  HIS A   1      14.330  21.138  62.625  0.00  0.00    +0.074 C 
BRANCH  44  45
ATOM     45  CG  HIS A   1      14.704  19.909  63.420  0.00  0.00    +0.082 A 
ATOM     46  ND1 HIS A   1      15.012  19.954  64.739  0.00  0.00    -0.227 NA
ATOM     47  CE1 HIS A   1      15.264  18.708  65.187  0.00  0.00    +0.199 A 
ATOM     48  NE2 HIS A   1      15.143  17.853  64.143  0.00  0.00    -0.221 NA
ATOM     49  CD2 HIS A   1      14.788  18.557  63.041  0.00  0.00    +0.115 A 
ENDBRANCH  44  45
ENDBRANCH  41  44
ENDBRANCH  34  41
ENDBRANCH  30  39
ENDBRANCH  29  32
BRANCH  29  50
ATOM     50  CB  ASP A   3      19.135  17.833  57.295  0.00  0.00    +0.143 C 
BRANCH  50  51
ATOM     51  CG  ASP A   3      19.028  16.529  56.501  0.00  0.00    +0.367 C 
ATOM     52  OD2 ASP A   3      18.978  15.426  57.120  0.00  0.00    -0.246 OA
ATOM     53  OD1 ASP A   3      19.036  16.624  55.239  0.00  0.00    -0.246 OA
ENDBRANCH  50  51
ENDBRANCH  29  50
ENDBRANCH   1  29
TORSDOF 20
REMARK  Name = ../refined-set-2016/4a6s/4a6s_pocket.pdb
REMARK  79 active torsions:
REMARK  status: ('A' for Active; 'I' for Inactive)
REMARK    1  A    between atoms: _1  and  _3
REMARK    2  A    between atoms: _3  and  _4
REMARK    3  A    between atoms: _3  and  _6
REMARK    4  A    between atoms: _6  and  _7
REMARK    5  A    between atoms: _9  and  _11
REMARK    6  A    between atoms: _11  and  _12
REMARK    7  A    between atoms: _11  and  _14
REMARK    8  A    between atoms: _14  and  _15
REMARK    9  A    between atoms: _20  and  _21
REMARK   10  A    between atoms: _23  and  _25
REMARK   11  A    between atoms: _25  and  _26
REMARK   12  A    between atoms: _29  and  _30
REMARK   13  A    between atoms: _35  and  _37
REMARK   14  A    between atoms: _37  and  _38
REMARK   15  A    between atoms: _37  and  _40
REMARK   16  A    between atoms: _40  and  _41
REMARK   17  A    between atoms: _44  and  _46
REMARK   18  A    between atoms: _46  and  _47
REMARK   19  A    between atoms: _46  and  _49
REMARK   20  A    between atoms: _49  and  _50
REMARK   21  A    between atoms: _60  and  _62
REMARK   22  A    between atoms: _62  and  _63
REMARK   23  A    between atoms: _62  and  _65
REMARK   24  A    between atoms: _65  and  _66
REMARK   25  A    between atoms: _69  and  _71
REMARK   26  A    between atoms: _71  and  _72
REMARK   27  A    between atoms: _71  and  _74
REMARK   28  A    between atoms: _74  and  _75
REMARK   29  A    between atoms: _81  and  _82
REMARK   30  A    between atoms: _87  and  _89
REMARK   31  A    between atoms: _89  and  _90
REMARK   32  A    between atoms: _89  and  _92
REMARK   33  A    between atoms: _92  and  _93
REMARK   34  A    between atoms: _96  and  _98
REMARK   35  A    between atoms: _98  and  _99
REMARK   36  A    between atoms: _98  and  _101
REMARK   37  A    between atoms: _101  and  _102
REMARK   38  A    between atoms: _102  and  _103
REMARK   39  A    between atoms: _108  and  _110
REMARK   40  A    between atoms: _110  and  _111
REMARK   41  A    between atoms: _113  and  _115
REMARK   42  A    between atoms: _115  and  _116
REMARK   43  A    between atoms: _115  and  _118
REMARK   44  A    between atoms: _118  and  _119
REMARK   45  A    between atoms: _122  and  _124
REMARK   46  A    between atoms: _124  and  _125
REMARK   47  A    between atoms: _124  and  _127
REMARK   48  A    between atoms: _129  and  _131
REMARK   49  A    between atoms: _131  and  _132
REMARK   50  A    between atoms: _134  and  _136
REMARK   51  A    between atoms: _136  and  _137
REMARK   52  A    between atoms: _136  and  _139
REMARK   53  A    between atoms: _139  and  _140
REMARK   54  A    between atoms: _145  and  _146
REMARK   55  A    between atoms: _148  and  _150
REMARK   56  A    between atoms: _150  and  _151
REMARK   57  A    between atoms: _150  and  _153
REMARK   58  A    between atoms: _153  and  _154
REMARK   59  A    between atoms: _159  and  _161
REMARK   60  A    between atoms: _161  and  _162
REMARK   61  A    between atoms: _161  and  _164
REMARK   62  A    between atoms: _164  and  _165
REMARK   63  A    between atoms: _168  and  _170
REMARK   64  A    between atoms: _170  and  _171
REMARK   65  A    between atoms: _170  and  _173
REMARK   66  A    between atoms: _177  and  _178
REMARK   67  A    between atoms: _183  and  _185
REMARK   68  A    between atoms: _185  and  _186
REMARK   69  A    between atoms: _188  and  _190
REMARK   70  A    between atoms: _190  and  _191
REMARK   71  A    between atoms: _190  and  _193
REMARK   72  A    between atoms: _193  and  _194
REMARK   73  A    between atoms: _199  and  _202
REMARK   74  A    between atoms: _202  and  _203
REMARK   75  A    between atoms: _208  and  _209
REMARK   76  A    between atoms: _218  and  _221
REMARK   77  A    between atoms: _221  and  _222
REMARK   78  A    between atoms: _229  and  _230
REMARK   79  A    between atoms: _233  and  _235
REMARK                            x       y       z     vdW  Elec       q    Type
REMARK                         _______ _______ _______ _____ _____    ______ ____
ROOT
ATOM      1  C   CYS A   1      10.755  18.393  58.861  0.00  0.00    +0.239 C 
ATOM      2  O   CYS A   1      10.450  19.577  59.016  0.00  0.00    -0.274 OA
ATOM      3  N   GLY A   2       9.827  17.447  58.802  0.00  0.00    -0.297 N 
ATOM      4  H   GLY A   2      10.097  16.446  58.725  0.00  0.00    +0.150 HD
ENDROOT
BRANCH   1   5
ATOM      5  CA  CYS A   1      12.232  17.971  58.691  0.00  0.00    +0.156 C 
BRANCH   5   6
ATOM      6  N   CYS A   1      12.873  18.904  57.777  0.00  0.00    -0.237 NA
ATOM      7  H   CYS A   1      13.787  19.324  58.039  0.00  0.00    +0.142 HD
ENDBRANCH   5   6
BRANCH   5   8
ATOM      8  CB  CYS A   1      12.922  17.995  60.050  0.00  0.00    +0.095 C 
ATOM      9  SG  CYS A   1      12.271  16.662  61.077  0.00  0.00    -0.080 S 
ENDBRANCH   5   8
ENDBRANCH   1   5
BRANCH   3  10
ATOM     10  CA  GLY A   2       8.423  17.834  58.847  0.00  0.00    +0.163 C 
BRANCH  10  11
ATOM     11  C   GLY A   2       7.761  18.331  57.557  0.00  0.00    +0.229 C 
ATOM     12  O   GLY A   2       6.571  18.619  57.545  0.00  0.00    -0.286 OA
ENDBRANCH  10  11
ENDBRANCH   3  10
TORSDOF 5
REMARK  Name = ../refined-set-2016/4a6s/4a6s_pocket.pdb
REMARK  79 active torsions:
REMARK  status: ('A' for Active; 'I' for Inactive)
REMARK    1  A    between atoms: _1  and  _3
REMARK    2  A    between atoms: _3  and  _4
REMARK    3  A    between atoms: _3  and  _6
REMARK    4  A    between atoms: _6  and  _7
REMARK    5  A    between atoms: _9  and  _11
REMARK    6  A    between atoms: _11  and  _12
REMARK    7  A    between atoms: _11  and  _14
REMARK    8  A    between atoms: _14  and  _15
REMARK    9  A    between atoms: _20  and  _21
REMARK   10  A    between atoms: _23  and  _25
REMARK   11  A    between atoms: _25  and  _26
REMARK   12  A    between atoms: _29  and  _30
REMARK   13  A    between atoms: _35  and  _37
REMARK   14  A    between atoms: _37  and  _38
REMARK   15  A    between atoms: _37  and  _40
REMARK   16  A    between atoms: _40  and  _41
REMARK   17  A    between atoms: _44  and  _46
REMARK   18  A    between atoms: _46  and  _47
REMARK   19  A    between atoms: _46  and  _49
REMARK   20  A    between atoms: _49  and  _50
REMARK   21  A    between atoms: _60  and  _62
REMARK   22  A    between atoms: _62  and  _63
REMARK   23  A    between atoms: _62  and  _65
REMARK   24  A    between atoms: _65  and  _66
REMARK   25  A    between atoms: _69  and  _71
REMARK   26  A    between atoms: _71  and  _72
REMARK   27  A    between atoms: _71  and  _74
REMARK   28  A    between atoms: _74  and  _75
REMARK   29  A    between atoms: _81  and  _82
REMARK   30  A    between atoms: _87  and  _89
REMARK   31  A    between atoms: _89  and  _90
REMARK   32  A    between atoms: _89  and  _92
REMARK   33  A    between atoms: _92  and  _93
REMARK   34  A    between atoms: _96  and  _98
REMARK   35  A    between atoms: _98  and  _99
REMARK   36  A    between atoms: _98  and  _101
REMARK   37  A    between atoms: _101  and  _102
REMARK   38  A    between atoms: _102  and  _103
REMARK   39  A    between atoms: _108  and  _110
REMARK   40  A    between atoms: _110  and  _111
REMARK   41  A    between atoms: _113  and  _115
REMARK   42  A    between atoms: _115  and  _116
REMARK   43  A    between atoms: _115  and  _118
REMARK   44  A    between atoms: _118  and  _119
REMARK   45  A    between atoms: _122  and  _124
REMARK   46  A    between atoms: _124  and  _125
REMARK   47  A    between atoms: _124  and  _127
REMARK   48  A    between atoms: _129  and  _131
REMARK   49  A    between atoms: _131  and  _132
REMARK   50  A    between atoms: _134  and  _136
REMARK   51  A    between atoms: _136  and  _137
REMARK   52  A    between atoms: _136  and  _139
REMARK   53  A    between atoms: _139  and  _140
REMARK   54  A    between atoms: _145  and  _146
REMARK   55  A    between atoms: _148  and  _150
REMARK   56  A    between atoms: _150  and  _151
REMARK   57  A    between atoms: _150  and  _153
REMARK   58  A    between atoms: _153  and  _154
REMARK   59  A    between atoms: _159  and  _161
REMARK   60  A    between atoms: _161  and  _162
REMARK   61  A    between atoms: _161  and  _164
REMARK   62  A    between atoms: _164  and  _165
REMARK   63  A    between atoms: _168  and  _170
REMARK   64  A    between atoms: _170  and  _171
REMARK   65  A    between atoms: _170  and  _173
REMARK   66  A    between atoms: _177  and  _178
REMARK   67  A    between atoms: _183  and  _185
REMARK   68  A    between atoms: _185  and  _186
REMARK   69  A    between atoms: _188  and  _190
REMARK   70  A    between atoms: _190  and  _191
REMARK   71  A    between atoms: _190  and  _193
REMARK   72  A    between atoms: _193  and  _194
REMARK   73  A    between atoms: _199  and  _202
REMARK   74  A    between atoms: _202  and  _203
REMARK   75  A    between atoms: _208  and  _209
REMARK   76  A    between atoms: _218  and  _221
REMARK   77  A    between atoms: _221  and  _222
REMARK   78  A    between atoms: _229  and  _230
REMARK   79  A    between atoms: _233  and  _235
REMARK                            x       y       z     vdW  Elec       q    Type
REMARK                         _______ _______ _______ _____ _____    ______ ____
ROOT
ATOM      1  C   UNK A   0      12.670   6.057  63.758  0.00  0.00    +0.000 C 
ATOM      2  O   UNK A   0      12.654   5.755  64.961  0.00  0.00    +0.000 OA
ATOM      3  N   UNK A   0      12.364   7.295  63.397  0.00  0.00    +0.000 N 
ATOM      4  H   UNK A   0      12.325   7.590  62.401  0.00  0.00    +0.000 HD
ENDROOT
BRANCH   3   5
ATOM      5  C   UNK A   0      12.084   8.220  64.502  0.00  0.00    +0.000 C 
BRANCH   5   6
ATOM      6  C   UNK A   0      10.684   8.783  64.374  0.00  0.00    +0.000 C 
ATOM      7  O   UNK A   0      10.378   9.909  64.868  0.00  0.00    +0.000 OA
ATOM      8 CA   UNK A   0      10.001  12.129  65.002  0.00  0.00    +0.000 Ca
ATOM      9  O   UNK A   1       7.787  11.948  64.355  0.00  0.00    +0.000 OA
ATOM     10  C   UNK A   1       6.929  11.696  63.447  0.00  0.00    +0.000 C 
ATOM     11  C   UNK A   1       5.452  11.565  63.763  0.00  0.00    +0.000 C 
ATOM     12  C   UNK A   1       5.163  11.869  65.241  0.00  0.00    +0.000 C 
ATOM     13  N   UNK A   1       5.788  10.838  66.090  0.00  0.00    +0.000 N 
ATOM     14  C   UNK A   1       6.101  11.118  67.356  0.00  0.00    +0.000 C 
ATOM     15  C   UNK A   1       6.720  10.007  68.181  0.00  0.00    +0.000 C 
ATOM     16  N   UNK A   1       7.184   8.921  67.342  0.00  0.00    +0.000 N 
ATOM     17  C   UNK A   1       6.379   7.887  67.132  0.00  0.00    +0.000 C 
ATOM     18  O   UNK A   1       5.269   7.825  67.642  0.00  0.00    +0.000 OA
ATOM     19  C   UNK A   1       6.852   6.777  66.214  0.00  0.00    +0.000 C 
ATOM     20  N   UNK A   1       7.801   7.222  65.200  0.00  0.00    +0.000 N 
ATOM     21  H   UNK A   1       8.776   6.864  65.251  0.00  0.00    +0.000 HD
ATOM     22  C   UNK A   1       7.492   8.058  64.216  0.00  0.00    +0.000 C 
ATOM     23  O   UNK A   1       6.415   8.647  64.113  0.00  0.00    +0.000 OA
ATOM     24  C   UNK A   1       8.567   8.299  63.198  0.00  0.00    +0.000 C 
ATOM     25  H   UNK A   1       8.131   8.951  66.912  0.00  0.00    +0.000 HD
ATOM     26  O   UNK A   1       5.948  12.246  67.840  0.00  0.00    +0.000 OA
ATOM     27  H   UNK A   1       5.985   9.893  65.702  0.00  0.00    +0.000 HD
ATOM     28  N   UNK A   1       9.871   7.950  63.720  0.00  0.00    +0.000 NA
ATOM     29  H   UNK A   1      10.200   6.974  63.574  0.00  0.00    +0.000 HD
BRANCH  10  30
ATOM     30  N   UNK A   1       7.252  11.526  62.192  0.00  0.00    +0.000 NA
ATOM     31  H   UNK A   1       8.247  11.595  61.897  0.00  0.00    +0.000 HD
ATOM     32  H   UNK A   1       6.514  11.322  61.488  0.00  0.00    +0.000 HD
ENDBRANCH  10  30
BRANCH  12  33
ATOM     33  C   UNK A   1       3.665  11.959  65.495  0.00  0.00    +0.000 C 
ATOM     34  O   UNK A   1       3.052  10.986  65.934  0.00  0.00    +0.000 OA
ENDBRANCH  12  33
BRANCH  15  35
ATOM     35  C   UNK A   1       7.849  10.540  69.085  0.00  0.00    +0.000 C 
BRANCH  35  36
ATOM     36  C   UNK A   1       8.858  11.405  68.322  0.00  0.00    +0.000 C 
ATOM     37  N   UNK A   1       9.600  12.217  69.051  0.00  0.00    +0.000 N 
ATOM     38  H   UNK A   1       9.451  12.276  70.079  0.00  0.00    +0.000 HD
ATOM     39  H   UNK A   1      10.334  12.798  68.598  0.00  0.00    +0.000 HD
ATOM     40  O   UNK A   1       8.997  11.301  67.101  0.00  0.00    +0.000 OA
ENDBRANCH  35  36
ENDBRANCH  15  35
BRANCH  24  41
ATOM     41  C   UNK A   1       8.231   7.456  61.945  0.00  0.00    +0.000 C 
BRANCH  41  42
ATOM     42  C   UNK A   1       8.603   8.082  60.627  0.00  0.00    +0.000 A 
ATOM     43  C   UNK A   1       9.920   7.993  60.151  0.00  0.00    +0.000 A 
ATOM     44  C   UNK A   1      10.295   8.575  58.945  0.00  0.00    +0.000 A 
ATOM     45  C   UNK A   1       9.341   9.223  58.180  0.00  0.00    +0.000 A 
ATOM     46  C   UNK A   1       8.015   9.347  58.647  0.00  0.00    +0.000 A 
ATOM     47  C   UNK A   1       7.651   8.770  59.853  0.00  0.00    +0.000 A 
BRANCH  45  48
ATOM     48  O   UNK A   1       9.741   9.826  56.980  0.00  0.00    +0.000 OA
ATOM     49  H   UNK A   1       9.608  10.805  57.044  0.00  0.00    +0.000 HD
ENDBRANCH  45  48
ENDBRANCH  41  42
ENDBRANCH  24  41
ENDBRANCH   5   6
BRANCH   5  50
ATOM     50  C   UNK A   0      13.105   9.354  64.592  0.00  0.00    +0.000 C 
ATOM     51  C   UNK A   0      14.528   8.824  64.591  0.00  0.00    +0.000 C 
BRANCH  50  52
ATOM     52  O   UNK A   0      12.914  10.231  63.485  0.00  0.00    +0.000 OA
ATOM     53  H   UNK A   0      13.042   9.729  62.642  0.00  0.00    +0.000 HD
ENDBRANCH  50  52
ENDBRANCH   5  50
ENDBRANCH   3   5
BRANCH   1  54
ATOM     54  C   UNK A   0      13.053   5.012  62.684  0.00  0.00    +0.000 C 
BRANCH  54  57
ATOM     55  C   UNK A   0      14.324   6.275  60.938  0.00  0.00    +0.000 C 
ATOM     56  O   UNK A   0      15.363   6.510  61.619  0.00  0.00    +0.000 OA
ATOM     57  N   UNK A   0      13.239   5.579  61.344  0.00  0.00    +0.000 N 
ATOM     58  H   UNK A   0      12.476   5.434  60.652  0.00  0.00    +0.000 HD
BRANCH  55  62
ATOM     59  C   UNK A   0      14.164   9.082  60.229  0.00  0.00    +0.000 C 
ATOM     60  O   UNK A   0      13.321   8.808  61.102  0.00  0.00    +0.000 OA
ATOM     61  N   UNK A   0      14.687   8.155  59.384  0.00  0.00    +0.000 N 
ATOM     62  C   UNK A   0      14.242   6.760  59.509  0.00  0.00    +0.000 C 
ATOM     63  C   UNK A   0      15.223   5.974  58.620  0.00  0.00    +0.000 C 
ATOM     64  C   UNK A   0      15.664   6.980  57.618  0.00  0.00    +0.000 C 
ATOM     65  C   UNK A   0      15.686   8.325  58.323  0.00  0.00    +0.000 C 
BRANCH  59  66
ATOM     66  C   UNK A   0      14.650  10.522  60.086  0.00  0.00    +0.000 C 
BRANCH  66  68
ATOM     67  C   UNK A   0      12.741  11.689  59.015  0.00  0.00    +0.000 C 
ATOM     68  N   UNK A   0      13.477  11.406  60.097  0.00  0.00    +0.000 N 
ATOM     69  H   UNK A   0      13.201  11.839  61.001  0.00  0.00    +0.000 HD
ATOM     70  O   UNK A   0      13.021  11.301  57.872  0.00  0.00    +0.000 OA
BRANCH  67  71
ATOM     71  C   UNK A   0      11.519  12.597  59.192  0.00  0.00    +0.000 C 
BRANCH  71  74
ATOM     72  C   UNK A   0      10.315  13.857  57.474  0.00  0.00    +0.000 C 
ATOM     73  O   UNK A   0      10.031  14.757  58.294  0.00  0.00    +0.000 OA
ATOM     74  N   UNK A   0      10.910  12.731  57.849  0.00  0.00    +0.000 N 
ATOM     75  H   UNK A   0      10.949  11.929  57.188  0.00  0.00    +0.000 HD
BRANCH  72  76
ATOM     76  C   UNK A   0       9.859  13.940  55.991  0.00  0.00    +0.000 C 
BRANCH  76  79
ATOM     77  C   UNK A   0       7.710  12.814  56.078  0.00  0.00    +0.000 C 
ATOM     78  O   UNK A   0       8.277  11.707  56.185  0.00  0.00    +0.000 OA
ATOM     79  N   UNK A   0       8.395  13.942  55.952  0.00  0.00    +0.000 N 
ATOM     80  H   UNK A   0       7.886  14.840  55.824  0.00  0.00    +0.000 HD
BRANCH  77  81
ATOM     81  C   UNK A   0       6.165  12.898  56.007  0.00  0.00    +0.000 C 
BRANCH  81  82
ATOM     82  N   UNK A   0       5.668  11.918  55.012  0.00  0.00    +0.000 NA
ATOM     83  H   UNK A   0       5.138  11.093  55.359  0.00  0.00    +0.000 HD
ENDBRANCH  81  82
BRANCH  81  84
ATOM     84  C   UNK A   0       5.499  12.624  57.363  0.00  0.00    +0.000 C 
BRANCH  84  85
ATOM     85  C   UNK A   0       5.645  13.784  58.361  0.00  0.00    +0.000 A 
ATOM     86  C   UNK A   0       6.438  13.646  59.491  0.00  0.00    +0.000 A 
ATOM     87  C   UNK A   0       6.555  14.655  60.421  0.00  0.00    +0.000 A 
ATOM     88  C   UNK A   0       5.887  15.854  60.206  0.00  0.00    +0.000 A 
ATOM     89  C   UNK A   0       5.109  16.023  59.093  0.00  0.00    +0.000 A 
ATOM     90  C   UNK A   0       4.970  14.969  58.191  0.00  0.00    +0.000 A 
BRANCH  88  91
ATOM     91  O   UNK A   0       6.014  16.838  61.109  0.00  0.00    +0.000 OA
ATOM     92  H   UNK A   0       5.483  17.622  60.818  0.00  0.00    +0.000 HD
ENDBRANCH  88  91
ENDBRANCH  84  85
ENDBRANCH  81  84
ENDBRANCH  77  81
ENDBRANCH  76  79
BRANCH  76  93
ATOM     93  C   UNK A   0      10.428  15.191  55.283  0.00  0.00    +0.000 C 
BRANCH  93  94
ATOM     94  C   UNK A   0      11.908  15.048  54.937  0.00  0.00    +0.000 C 
ATOM     95  O   UNK A   0      12.434  13.956  54.920  0.00  0.00    +0.000 OA
ATOM     96  N   UNK A   0      12.583  16.156  54.687  0.00  0.00    +0.000 N 
ATOM     97  H   UNK A   0      12.099  17.076  54.710  0.00  0.00    +0.000 HD
ATOM     98  H   UNK A   0      13.598  16.108  54.467  0.00  0.00    +0.000 HD
ENDBRANCH  93  94
ENDBRANCH  76  93
ENDBRANCH  72  76
ENDBRANCH  71  74
BRANCH  71  99
ATOM     99  C   UNK A   0      10.496  12.079  60.216  0.00  0.00    +0.000 C 
BRANCH  99 100
ATOM    100  C   UNK A   0      10.881  12.408  61.669  0.00  0.00    +0.000 C 
ATOM    101  O   UNK A   0      10.045  12.254  62.605  0.00  0.00    +0.000 OA
ATOM    102  O   UNK A   0      12.043  12.806  61.911  0.00  0.00    +0.000 OA
ENDBRANCH  99 100
ENDBRANCH  71  99
ENDBRANCH  67  71
ENDBRANCH  66  68
BRANCH  66 103
ATOM    103  C   UNK A   0      15.640  10.805  61.254  0.00  0.00    +0.000 C 
ATOM    104  C   UNK A   0      16.588   9.619  61.462  0.00  0.00    +0.000 C 
ATOM    105  C   UNK A   0      16.440  12.062  60.983  0.00  0.00    +0.000 C 
ENDBRANCH  66 103
ENDBRANCH  59  66
ENDBRANCH  55  62
ENDBRANCH  54  57
ENDBRANCH   1  54
TORSDOF 30
REMARK  Name = ../refined-set-2016/4a6s/4a6s_pocket.pdb
REMARK  79 active torsions:
REMARK  status: ('A' for Active; 'I' for Inactive)
REMARK    1  A    between atoms: _1  and  _3
REMARK    2  A    between atoms: _3  and  _4
REMARK    3  A    between atoms: _3  and  _6
REMARK    4  A    between atoms: _6  and  _7
REMARK    5  A    between atoms: _9  and  _11
REMARK    6  A    between atoms: _11  and  _12
REMARK    7  A    between atoms: _11  and  _14
REMARK    8  A    between atoms: _14  and  _15
REMARK    9  A    between atoms: _20  and  _21
REMARK   10  A    between atoms: _23  and  _25
REMARK   11  A    between atoms: _25  and  _26
REMARK   12  A    between atoms: _29  and  _30
REMARK   13  A    between atoms: _35  and  _37
REMARK   14  A    between atoms: _37  and  _38
REMARK   15  A    between atoms: _37  and  _40
REMARK   16  A    between atoms: _40  and  _41
REMARK   17  A    between atoms: _44  and  _46
REMARK   18  A    between atoms: _46  and  _47
REMARK   19  A    between atoms: _46  and  _49
REMARK   20  A    between atoms: _49  and  _50
REMARK   21  A    between atoms: _60  and  _62
REMARK   22  A    between atoms: _62  and  _63
REMARK   23  A    between atoms: _62  and  _65
REMARK   24  A    between atoms: _65  and  _66
REMARK   25  A    between atoms: _69  and  _71
REMARK   26  A    between atoms: _71  and  _72
REMARK   27  A    between atoms: _71  and  _74
REMARK   28  A    between atoms: _74  and  _75
REMARK   29  A    between atoms: _81  and  _82
REMARK   30  A    between atoms: _87  and  _89
REMARK   31  A    between atoms: _89  and  _90
REMARK   32  A    between atoms: _89  and  _92
REMARK   33  A    between atoms: _92  and  _93
REMARK   34  A    between atoms: _96  and  _98
REMARK   35  A    between atoms: _98  and  _99
REMARK   36  A    between atoms: _98  and  _101
REMARK   37  A    between atoms: _101  and  _102
REMARK   38  A    between atoms: _102  and  _103
REMARK   39  A    between atoms: _108  and  _110
REMARK   40  A    between atoms: _110  and  _111
REMARK   41  A    between atoms: _113  and  _115
REMARK   42  A    between atoms: _115  and  _116
REMARK   43  A    between atoms: _115  and  _118
REMARK   44  A    between atoms: _118  and  _119
REMARK   45  A    between atoms: _122  and  _124
REMARK   46  A    between atoms: _124  and  _125
REMARK   47  A    between atoms: _124  and  _127
REMARK   48  A    between atoms: _129  and  _131
REMARK   49  A    between atoms: _131  and  _132
REMARK   50  A    between atoms: _134  and  _136
REMARK   51  A    between atoms: _136  and  _137
REMARK   52  A    between atoms: _136  and  _139
REMARK   53  A    between atoms: _139  and  _140
REMARK   54  A    between atoms: _145  and  _146
REMARK   55  A    between atoms: _148  and  _150
REMARK   56  A    between atoms: _150  and  _151
REMARK   57  A    between atoms: _150  and  _153
REMARK   58  A    between atoms: _153  and  _154
REMARK   59  A    between atoms: _159  and  _161
REMARK   60  A    between atoms: _161  and  _162
REMARK   61  A    between atoms: _161  and  _164
REMARK   62  A    between atoms: _164  and  _165
REMARK   63  A    between atoms: _168  and  _170
REMARK   64  A    between atoms: _170  and  _171
REMARK   65  A    between atoms: _170  and  _173
REMARK   66  A    between atoms: _177  and  _178
REMARK   67  A    between atoms: _183  and  _185
REMARK   68  A    between atoms: _185  and  _186
REMARK   69  A    between atoms: _188  and  _190
REMARK   70  A    between atoms: _190  and  _191
REMARK   71  A    between atoms: _190  and  _193
REMARK   72  A    between atoms: _193  and  _194
REMARK   73  A    between atoms: _199  and  _202
REMARK   74  A    between atoms: _202  and  _203
REMARK   75  A    between atoms: _208  and  _209
REMARK   76  A    between atoms: _218  and  _221
REMARK   77  A    between atoms: _221  and  _222
REMARK   78  A    between atoms: _229  and  _230
REMARK   79  A    between atoms: _233  and  _235
REMARK                            x       y       z     vdW  Elec       q    Type
REMARK                         _______ _______ _______ _____ _____    ______ ____
ROOT
ATOM      1  O   HOH     1       8.622  19.929  72.635  0.00  0.00    +0.000 OA
ENDROOT
TORSDOF 0
REMARK  Name = ../refined-set-2016/4a6s/4a6s_pocket.pdb
REMARK  79 active torsions:
REMARK  status: ('A' for Active; 'I' for Inactive)
REMARK    1  A    between atoms: _1  and  _3
REMARK    2  A    between atoms: _3  and  _4
REMARK    3  A    between atoms: _3  and  _6
REMARK    4  A    between atoms: _6  and  _7
REMARK    5  A    between atoms: _9  and  _11
REMARK    6  A    between atoms: _11  and  _12
REMARK    7  A    between atoms: _11  and  _14
REMARK    8  A    between atoms: _14  and  _15
REMARK    9  A    between atoms: _20  and  _21
REMARK   10  A    between atoms: _23  and  _25
REMARK   11  A    between atoms: _25  and  _26
REMARK   12  A    between atoms: _29  and  _30
REMARK   13  A    between atoms: _35  and  _37
REMARK   14  A    between atoms: _37  and  _38
REMARK   15  A    between atoms: _37  and  _40
REMARK   16  A    between atoms: _40  and  _41
REMARK   17  A    between atoms: _44  and  _46
REMARK   18  A    between atoms: _46  and  _47
REMARK   19  A    between atoms: _46  and  _49
REMARK   20  A    between atoms: _49  and  _50
REMARK   21  A    between atoms: _60  and  _62
REMARK   22  A    between atoms: _62  and  _63
REMARK   23  A    between atoms: _62  and  _65
REMARK   24  A    between atoms: _65  and  _66
REMARK   25  A    between atoms: _69  and  _71
REMARK   26  A    between atoms: _71  and  _72
REMARK   27  A    between atoms: _71  and  _74
REMARK   28  A    between atoms: _74  and  _75
REMARK   29  A    between atoms: _81  and  _82
REMARK   30  A    between atoms: _87  and  _89
REMARK   31  A    between atoms: _89  and  _90
REMARK   32  A    between atoms: _89  and  _92
REMARK   33  A    between atoms: _92  and  _93
REMARK   34  A    between atoms: _96  and  _98
REMARK   35  A    between atoms: _98  and  _99
REMARK   36  A    between atoms: _98  and  _101
REMARK   37  A    between atoms: _101  and  _102
REMARK   38  A    between atoms: _102  and  _103
REMARK   39  A    between atoms: _108  and  _110
REMARK   40  A    between atoms: _110  and  _111
REMARK   41  A    between atoms: _113  and  _115
REMARK   42  A    between atoms: _115  and  _116
REMARK   43  A    between atoms: _115  and  _118
REMARK   44  A    between atoms: _118  and  _119
REMARK   45  A    between atoms: _122  and  _124
REMARK   46  A    between atoms: _124  and  _125
REMARK   47  A    between atoms: _124  and  _127
REMARK   48  A    between atoms: _129  and  _131
REMARK   49  A    between atoms: _131  and  _132
REMARK   50  A    between atoms: _134  and  _136
REMARK   51  A    between atoms: _136  and  _137
REMARK   52  A    between atoms: _136  and  _139
REMARK   53  A    between atoms: _139  and  _140
REMARK   54  A    between atoms: _145  and  _146
REMARK   55  A    between atoms: _148  and  _150
REMARK   56  A    between atoms: _150  and  _151
REMARK   57  A    between atoms: _150  and  _153
REMARK   58  A    between atoms: _153  and  _154
REMARK   59  A    between atoms: _159  and  _161
REMARK   60  A    between atoms: _161  and  _162
REMARK   61  A    between atoms: _161  and  _164
REMARK   62  A    between atoms: _164  and  _165
REMARK   63  A    between atoms: _168  and  _170
REMARK   64  A    between atoms: _170  and  _171
REMARK   65  A    between atoms: _170  and  _173
REMARK   66  A    between atoms: _177  and  _178
REMARK   67  A    between atoms: _183  and  _185
REMARK   68  A    between atoms: _185  and  _186
REMARK   69  A    between atoms: _188  and  _190
REMARK   70  A    between atoms: _190  and  _191
REMARK   71  A    between atoms: _190  and  _193
REMARK   72  A    between atoms: _193  and  _194
REMARK   73  A    between atoms: _199  and  _202
REMARK   74  A    between atoms: _202  and  _203
REMARK   75  A    between atoms: _208  and  _209
REMARK   76  A    between atoms: _218  and  _221
REMARK   77  A    between atoms: _221  and  _222
REMARK   78  A    between atoms: _229  and  _230
REMARK   79  A    between atoms: _233  and  _235
REMARK                            x       y       z     vdW  Elec       q    Type
REMARK                         _______ _______ _______ _____ _____    ______ ____
ROOT
ATOM      1  O   HOH     1      12.752  10.119  71.205  0.00  0.00    +0.000 OA
ENDROOT
TORSDOF 0
REMARK  Name = ../refined-set-2016/4a6s/4a6s_pocket.pdb
REMARK  79 active torsions:
REMARK  status: ('A' for Active; 'I' for Inactive)
REMARK    1  A    between atoms: _1  and  _3
REMARK    2  A    between atoms: _3  and  _4
REMARK    3  A    between atoms: _3  and  _6
REMARK    4  A    between atoms: _6  and  _7
REMARK    5  A    between atoms: _9  and  _11
REMARK    6  A    between atoms: _11  and  _12
REMARK    7  A    between atoms: _11  and  _14
REMARK    8  A    between atoms: _14  and  _15
REMARK    9  A    between atoms: _20  and  _21
REMARK   10  A    between atoms: _23  and  _25
REMARK   11  A    between atoms: _25  and  _26
REMARK   12  A    between atoms: _29  and  _30
REMARK   13  A    between atoms: _35  and  _37
REMARK   14  A    between atoms: _37  and  _38
REMARK   15  A    between atoms: _37  and  _40
REMARK   16  A    between atoms: _40  and  _41
REMARK   17  A    between atoms: _44  and  _46
REMARK   18  A    between atoms: _46  and  _47
REMARK   19  A    between atoms: _46  and  _49
REMARK   20  A    between atoms: _49  and  _50
REMARK   21  A    between atoms: _60  and  _62
REMARK   22  A    between atoms: _62  and  _63
REMARK   23  A    between atoms: _62  and  _65
REMARK   24  A    between atoms: _65  and  _66
REMARK   25  A    between atoms: _69  and  _71
REMARK   26  A    between atoms: _71  and  _72
REMARK   27  A    between atoms: _71  and  _74
REMARK   28  A    between atoms: _74  and  _75
REMARK   29  A    between atoms: _81  and  _82
REMARK   30  A    between atoms: _87  and  _89
REMARK   31  A    between atoms: _89  and  _90
REMARK   32  A    between atoms: _89  and  _92
REMARK   33  A    between atoms: _92  and  _93
REMARK   34  A    between atoms: _96  and  _98
REMARK   35  A    between atoms: _98  and  _99
REMARK   36  A    between atoms: _98  and  _101
REMARK   37  A    between atoms: _101  and  _102
REMARK   38  A    between atoms: _102  and  _103
REMARK   39  A    between atoms: _108  and  _110
REMARK   40  A    between atoms: _110  and  _111
REMARK   41  A    between atoms: _113  and  _115
REMARK   42  A    between atoms: _115  and  _116
REMARK   43  A    between atoms: _115  and  _118
REMARK   44  A    between atoms: _118  and  _119
REMARK   45  A    between atoms: _122  and  _124
REMARK   46  A    between atoms: _124  and  _125
REMARK   47  A    between atoms: _124  and  _127
REMARK   48  A    between atoms: _129  and  _131
REMARK   49  A    between atoms: _131  and  _132
REMARK   50  A    between atoms: _134  and  _136
REMARK   51  A    between atoms: _136  and  _137
REMARK   52  A    between atoms: _136  and  _139
REMARK   53  A    between atoms: _139  and  _140
REMARK   54  A    between atoms: _145  and  _146
REMARK   55  A    between atoms: _148  and  _150
REMARK   56  A    between atoms: _150  and  _151
REMARK   57  A    between atoms: _150  and  _153
REMARK   58  A    between atoms: _153  and  _154
REMARK   59  A    between atoms: _159  and  _161
REMARK   60  A    between atoms: _161  and  _162
REMARK   61  A    between atoms: _161  and  _164
REMARK   62  A    between atoms: _164  and  _165
REMARK   63  A    between atoms: _168  and  _170
REMARK   64  A    between atoms: _170  and  _171
REMARK   65  A    between atoms: _170  and  _173
REMARK   66  A    between atoms: _177  and  _178
REMARK   67  A    between atoms: _183  and  _185
REMARK   68  A    between atoms: _185  and  _186
REMARK   69  A    between atoms: _188  and  _190
REMARK   70  A    between atoms: _190  and  _191
REMARK   71  A    between atoms: _190  and  _193
REMARK   72  A    between atoms: _193  and  _194
REMARK   73  A    between atoms: _199  and  _202
REMARK   74  A    between atoms: _202  and  _203
REMARK   75  A    between atoms: _208  and  _209
REMARK   76  A    between atoms: _218  and  _221
REMARK   77  A    between atoms: _221  and  _222
REMARK   78  A    between atoms: _229  and  _230
REMARK   79  A    between atoms: _233  and  _235
REMARK                            x       y       z     vdW  Elec       q    Type
REMARK                         _______ _______ _______ _____ _____    ______ ____
ROOT
ATOM      1  O   HOH     1      13.313  23.774  65.583  0.00  0.00    +0.000 OA
ENDROOT
TORSDOF 0
REMARK  Name = ../refined-set-2016/4a6s/4a6s_pocket.pdb
REMARK  79 active torsions:
REMARK  status: ('A' for Active; 'I' for Inactive)
REMARK    1  A    between atoms: _1  and  _3
REMARK    2  A    between atoms: _3  and  _4
REMARK    3  A    between atoms: _3  and  _6
REMARK    4  A    between atoms: _6  and  _7
REMARK    5  A    between atoms: _9  and  _11
REMARK    6  A    between atoms: _11  and  _12
REMARK    7  A    between atoms: _11  and  _14
REMARK    8  A    between atoms: _14  and  _15
REMARK    9  A    between atoms: _20  and  _21
REMARK   10  A    between atoms: _23  and  _25
REMARK   11  A    between atoms: _25  and  _26
REMARK   12  A    between atoms: _29  and  _30
REMARK   13  A    between atoms: _35  and  _37
REMARK   14  A    between atoms: _37  and  _38
REMARK   15  A    between atoms: _37  and  _40
REMARK   16  A    between atoms: _40  and  _41
REMARK   17  A    between atoms: _44  and  _46
REMARK   18  A    between atoms: _46  and  _47
REMARK   19  A    between atoms: _46  and  _49
REMARK   20  A    between atoms: _49  and  _50
REMARK   21  A    between atoms: _60  and  _62
REMARK   22  A    between atoms: _62  and  _63
REMARK   23  A    between atoms: _62  and  _65
REMARK   24  A    between atoms: _65  and  _66
REMARK   25  A    between atoms: _69  and  _71
REMARK   26  A    between atoms: _71  and  _72
REMARK   27  A    between atoms: _71  and  _74
REMARK   28  A    between atoms: _74  and  _75
REMARK   29  A    between atoms: _81  and  _82
REMARK   30  A    between atoms: _87  and  _89
REMARK   31  A    between atoms: _89  and  _90
REMARK   32  A    between atoms: _89  and  _92
REMARK   33  A    between atoms: _92  and  _93
REMARK   34  A    between atoms: _96  and  _98
REMARK   35  A    between atoms: _98  and  _99
REMARK   36  A    between atoms: _98  and  _101
REMARK   37  A    between atoms: _101  and  _102
REMARK   38  A    between atoms: _102  and  _103
REMARK   39  A    between atoms: _108  and  _110
REMARK   40  A    between atoms: _110  and  _111
REMARK   41  A    between atoms: _113  and  _115
REMARK   42  A    between atoms: _115  and  _116
REMARK   43  A    between atoms: _115  and  _118
REMARK   44  A    between atoms: _118  and  _119
REMARK   45  A    between atoms: _122  and  _124
REMARK   46  A    between atoms: _124  and  _125
REMARK   47  A    between atoms: _124  and  _127
REMARK   48  A    between atoms: _129  and  _131
REMARK   49  A    between atoms: _131  and  _132
REMARK   50  A    between atoms: _134  and  _136
REMARK   51  A    between atoms: _136  and  _137
REMARK   52  A    between atoms: _136  and  _139
REMARK   53  A    between atoms: _139  and  _140
REMARK   54  A    between atoms: _145  and  _146
REMARK   55  A    between atoms: _148  and  _150
REMARK   56  A    between atoms: _150  and  _151
REMARK   57  A    between atoms: _150  and  _153
REMARK   58  A    between atoms: _153  and  _154
REMARK   59  A    between atoms: _159  and  _161
REMARK   60  A    between atoms: _161  and  _162
REMARK   61  A    between atoms: _161  and  _164
REMARK   62  A    between atoms: _164  and  _165
REMARK   63  A    between atoms: _168  and  _170
REMARK   64  A    between atoms: _170  and  _171
REMARK   65  A    between atoms: _170  and  _173
REMARK   66  A    between atoms: _177  and  _178
REMARK   67  A    between atoms: _183  and  _185
REMARK   68  A    between atoms: _185  and  _186
REMARK   69  A    between atoms: _188  and  _190
REMARK   70  A    between atoms: _190  and  _191
REMARK   71  A    between atoms: _190  and  _193
REMARK   72  A    between atoms: _193  and  _194
REMARK   73  A    between atoms: _199  and  _202
REMARK   74  A    between atoms: _202  and  _203
REMARK   75  A    between atoms: _208  and  _209
REMARK   76  A    between atoms: _218  and  _221
REMARK   77  A    between atoms: _221  and  _222
REMARK   78  A    between atoms: _229  and  _230
REMARK   79  A    between atoms: _233  and  _235
REMARK                            x       y       z     vdW  Elec       q    Type
REMARK                         _______ _______ _______ _____ _____    ______ ____
ROOT
ATOM      1  O   HOH     1      15.672  22.821  66.172  0.00  0.00    +0.000 OA
ENDROOT
TORSDOF 0
REMARK  Name = ../refined-set-2016/4a6s/4a6s_pocket.pdb
REMARK  79 active torsions:
REMARK  status: ('A' for Active; 'I' for Inactive)
REMARK    1  A    between atoms: _1  and  _3
REMARK    2  A    between atoms: _3  and  _4
REMARK    3  A    between atoms: _3  and  _6
REMARK    4  A    between atoms: _6  and  _7
REMARK    5  A    between atoms: _9  and  _11
REMARK    6  A    between atoms: _11  and  _12
REMARK    7  A    between atoms: _11  and  _14
REMARK    8  A    between atoms: _14  and  _15
REMARK    9  A    between atoms: _20  and  _21
REMARK   10  A    between atoms: _23  and  _25
REMARK   11  A    between atoms: _25  and  _26
REMARK   12  A    between atoms: _29  and  _30
REMARK   13  A    between atoms: _35  and  _37
REMARK   14  A    between atoms: _37  and  _38
REMARK   15  A    between atoms: _37  and  _40
REMARK   16  A    between atoms: _40  and  _41
REMARK   17  A    between atoms: _44  and  _46
REMARK   18  A    between atoms: _46  and  _47
REMARK   19  A    between atoms: _46  and  _49
REMARK   20  A    between atoms: _49  and  _50
REMARK   21  A    between atoms: _60  and  _62
REMARK   22  A    between atoms: _62  and  _63
REMARK   23  A    between atoms: _62  and  _65
REMARK   24  A    between atoms: _65  and  _66
REMARK   25  A    between atoms: _69  and  _71
REMARK   26  A    between atoms: _71  and  _72
REMARK   27  A    between atoms: _71  and  _74
REMARK   28  A    between atoms: _74  and  _75
REMARK   29  A    between atoms: _81  and  _82
REMARK   30  A    between atoms: _87  and  _89
REMARK   31  A    between atoms: _89  and  _90
REMARK   32  A    between atoms: _89  and  _92
REMARK   33  A    between atoms: _92  and  _93
REMARK   34  A    between atoms: _96  and  _98
REMARK   35  A    between atoms: _98  and  _99
REMARK   36  A    between atoms: _98  and  _101
REMARK   37  A    between atoms: _101  and  _102
REMARK   38  A    between atoms: _102  and  _103
REMARK   39  A    between atoms: _108  and  _110
REMARK   40  A    between atoms: _110  and  _111
REMARK   41  A    between atoms: _113  and  _115
REMARK   42  A    between atoms: _115  and  _116
REMARK   43  A    between atoms: _115  and  _118
REMARK   44  A    between atoms: _118  and  _119
REMARK   45  A    between atoms: _122  and  _124
REMARK   46  A    between atoms: _124  and  _125
REMARK   47  A    between atoms: _124  and  _127
REMARK   48  A    between atoms: _129  and  _131
REMARK   49  A    between atoms: _131  and  _132
REMARK   50  A    between atoms: _134  and  _136
REMARK   51  A    between atoms: _136  and  _137
REMARK   52  A    between atoms: _136  and  _139
REMARK   53  A    between atoms: _139  and  _140
REMARK   54  A    between atoms: _145  and  _146
REMARK   55  A    between atoms: _148  and  _150
REMARK   56  A    between atoms: _150  and  _151
REMARK   57  A    between atoms: _150  and  _153
REMARK   58  A    between atoms: _153  and  _154
REMARK   59  A    between atoms: _159  and  _161
REMARK   60  A    between atoms: _161  and  _162
REMARK   61  A    between atoms: _161  and  _164
REMARK   62  A    between atoms: _164  and  _165
REMARK   63  A    between atoms: _168  and  _170
REMARK   64  A    between atoms: _170  and  _171
REMARK   65  A    between atoms: _170  and  _173
REMARK   66  A    between atoms: _177  and  _178
REMARK   67  A    between atoms: _183  and  _185
REMARK   68  A    between atoms: _185  and  _186
REMARK   69  A    between atoms: _188  and  _190
REMARK   70  A    between atoms: _190  and  _191
REMARK   71  A    between atoms: _190  and  _193
REMARK   72  A    between atoms: _193  and  _194
REMARK   73  A    between atoms: _199  and  _202
REMARK   74  A    between atoms: _202  and  _203
REMARK   75  A    between atoms: _208  and  _209
REMARK   76  A    between atoms: _218  and  _221
REMARK   77  A    between atoms: _221  and  _222
REMARK   78  A    between atoms: _229  and  _230
REMARK   79  A    between atoms: _233  and  _235
REMARK                            x       y       z     vdW  Elec       q    Type
REMARK                         _______ _______ _______ _____ _____    ______ ____
ROOT
ATOM      1  O   HOH     1      16.539  16.023  60.983  0.00  0.00    +0.000 OA
ENDROOT
TORSDOF 0
REMARK  Name = ../refined-set-2016/4a6s/4a6s_pocket.pdb
REMARK  79 active torsions:
REMARK  status: ('A' for Active; 'I' for Inactive)
REMARK    1  A    between atoms: _1  and  _3
REMARK    2  A    between atoms: _3  and  _4
REMARK    3  A    between atoms: _3  and  _6
REMARK    4  A    between atoms: _6  and  _7
REMARK    5  A    between atoms: _9  and  _11
REMARK    6  A    between atoms: _11  and  _12
REMARK    7  A    between atoms: _11  and  _14
REMARK    8  A    between atoms: _14  and  _15
REMARK    9  A    between atoms: _20  and  _21
REMARK   10  A    between atoms: _23  and  _25
REMARK   11  A    between atoms: _25  and  _26
REMARK   12  A    between atoms: _29  and  _30
REMARK   13  A    between atoms: _35  and  _37
REMARK   14  A    between atoms: _37  and  _38
REMARK   15  A    between atoms: _37  and  _40
REMARK   16  A    between atoms: _40  and  _41
REMARK   17  A    between atoms: _44  and  _46
REMARK   18  A    between atoms: _46  and  _47
REMARK   19  A    between atoms: _46  and  _49
REMARK   20  A    between atoms: _49  and  _50
REMARK   21  A    between atoms: _60  and  _62
REMARK   22  A    between atoms: _62  and  _63
REMARK   23  A    between atoms: _62  and  _65
REMARK   24  A    between atoms: _65  and  _66
REMARK   25  A    between atoms: _69  and  _71
REMARK   26  A    between atoms: _71  and  _72
REMARK   27  A    between atoms: _71  and  _74
REMARK   28  A    between atoms: _74  and  _75
REMARK   29  A    between atoms: _81  and  _82
REMARK   30  A    between atoms: _87  and  _89
REMARK   31  A    between atoms: _89  and  _90
REMARK   32  A    between atoms: _89  and  _92
REMARK   33  A    between atoms: _92  and  _93
REMARK   34  A    between atoms: _96  and  _98
REMARK   35  A    between atoms: _98  and  _99
REMARK   36  A    between atoms: _98  and  _101
REMARK   37  A    between atoms: _101  and  _102
REMARK   38  A    between atoms: _102  and  _103
REMARK   39  A    between atoms: _108  and  _110
REMARK   40  A    between atoms: _110  and  _111
REMARK   41  A    between atoms: _113  and  _115
REMARK   42  A    between atoms: _115  and  _116
REMARK   43  A    between atoms: _115  and  _118
REMARK   44  A    between atoms: _118  and  _119
REMARK   45  A    between atoms: _122  and  _124
REMARK   46  A    between atoms: _124  and  _125
REMARK   47  A    between atoms: _124  and  _127
REMARK   48  A    between atoms: _129  and  _131
REMARK   49  A    between atoms: _131  and  _132
REMARK   50  A    between atoms: _134  and  _136
REMARK   51  A    between atoms: _136  and  _137
REMARK   52  A    between atoms: _136  and  _139
REMARK   53  A    between atoms: _139  and  _140
REMARK   54  A    between atoms: _145  and  _146
REMARK   55  A    between atoms: _148  and  _150
REMARK   56  A    between atoms: _150  and  _151
REMARK   57  A    between atoms: _150  and  _153
REMARK   58  A    between atoms: _153  and  _154
REMARK   59  A    between atoms: _159  and  _161
REMARK   60  A    between atoms: _161  and  _162
REMARK   61  A    between atoms: _161  and  _164
REMARK   62  A    between atoms: _164  and  _165
REMARK   63  A    between atoms: _168  and  _170
REMARK   64  A    between atoms: _170  and  _171
REMARK   65  A    between atoms: _170  and  _173
REMARK   66  A    between atoms: _177  and  _178
REMARK   67  A    between atoms: _183  and  _185
REMARK   68  A    between atoms: _185  and  _186
REMARK   69  A    between atoms: _188  and  _190
REMARK   70  A    between atoms: _190  and  _191
REMARK   71  A    between atoms: _190  and  _193
REMARK   72  A    between atoms: _193  and  _194
REMARK   73  A    between atoms: _199  and  _202
REMARK   74  A    between atoms: _202  and  _203
REMARK   75  A    between atoms: _208  and  _209
REMARK   76  A    between atoms: _218  and  _221
REMARK   77  A    between atoms: _221  and  _222
REMARK   78  A    between atoms: _229  and  _230
REMARK   79  A    between atoms: _233  and  _235
REMARK                            x       y       z     vdW  Elec       q    Type
REMARK                         _______ _______ _______ _____ _____    ______ ____
ROOT
ATOM      1  O   HOH     1       9.980   5.836  66.149  0.00  0.00    +0.000 OA
ENDROOT
TORSDOF 0
REMARK  Name = ../refined-set-2016/4a6s/4a6s_pocket.pdb
REMARK  79 active torsions:
REMARK  status: ('A' for Active; 'I' for Inactive)
REMARK    1  A    between atoms: _1  and  _3
REMARK    2  A    between atoms: _3  and  _4
REMARK    3  A    between atoms: _3  and  _6
REMARK    4  A    between atoms: _6  and  _7
REMARK    5  A    between atoms: _9  and  _11
REMARK    6  A    between atoms: _11  and  _12
REMARK    7  A    between atoms: _11  and  _14
REMARK    8  A    between atoms: _14  and  _15
REMARK    9  A    between atoms: _20  and  _21
REMARK   10  A    between atoms: _23  and  _25
REMARK   11  A    between atoms: _25  and  _26
REMARK   12  A    between atoms: _29  and  _30
REMARK   13  A    between atoms: _35  and  _37
REMARK   14  A    between atoms: _37  and  _38
REMARK   15  A    between atoms: _37  and  _40
REMARK   16  A    between atoms: _40  and  _41
REMARK   17  A    between atoms: _44  and  _46
REMARK   18  A    between atoms: _46  and  _47
REMARK   19  A    between atoms: _46  and  _49
REMARK   20  A    between atoms: _49  and  _50
REMARK   21  A    between atoms: _60  and  _62
REMARK   22  A    between atoms: _62  and  _63
REMARK   23  A    between atoms: _62  and  _65
REMARK   24  A    between atoms: _65  and  _66
REMARK   25  A    between atoms: _69  and  _71
REMARK   26  A    between atoms: _71  and  _72
REMARK   27  A    between atoms: _71  and  _74
REMARK   28  A    between atoms: _74  and  _75
REMARK   29  A    between atoms: _81  and  _82
REMARK   30  A    between atoms: _87  and  _89
REMARK   31  A    between atoms: _89  and  _90
REMARK   32  A    between atoms: _89  and  _92
REMARK   33  A    between atoms: _92  and  _93
REMARK   34  A    between atoms: _96  and  _98
REMARK   35  A    between atoms: _98  and  _99
REMARK   36  A    between atoms: _98  and  _101
REMARK   37  A    between atoms: _101  and  _102
REMARK   38  A    between atoms: _102  and  _103
REMARK   39  A    between atoms: _108  and  _110
REMARK   40  A    between atoms: _110  and  _111
REMARK   41  A    between atoms: _113  and  _115
REMARK   42  A    between atoms: _115  and  _116
REMARK   43  A    between atoms: _115  and  _118
REMARK   44  A    between atoms: _118  and  _119
REMARK   45  A    between atoms: _122  and  _124
REMARK   46  A    between atoms: _124  and  _125
REMARK   47  A    between atoms: _124  and  _127
REMARK   48  A    between atoms: _129  and  _131
REMARK   49  A    between atoms: _131  and  _132
REMARK   50  A    between atoms: _134  and  _136
REMARK   51  A    between atoms: _136  and  _137
REMARK   52  A    between atoms: _136  and  _139
REMARK   53  A    between atoms: _139  and  _140
REMARK   54  A    between atoms: _145  and  _146
REMARK   55  A    between atoms: _148  and  _150
REMARK   56  A    between atoms: _150  and  _151
REMARK   57  A    between atoms: _150  and  _153
REMARK   58  A    between atoms: _153  and  _154
REMARK   59  A    between atoms: _159  and  _161
REMARK   60  A    between atoms: _161  and  _162
REMARK   61  A    between atoms: _161  and  _164
REMARK   62  A    between atoms: _164  and  _165
REMARK   63  A    between atoms: _168  and  _170
REMARK   64  A    between atoms: _170  and  _171
REMARK   65  A    between atoms: _170  and  _173
REMARK   66  A    between atoms: _177  and  _178
REMARK   67  A    between atoms: _183  and  _185
REMARK   68  A    between atoms: _185  and  _186
REMARK   69  A    between atoms: _188  and  _190
REMARK   70  A    between atoms: _190  and  _191
REMARK   71  A    between atoms: _190  and  _193
REMARK   72  A    between atoms: _193  and  _194
REMARK   73  A    between atoms: _199  and  _202
REMARK   74  A    between atoms: _202  and  _203
REMARK   75  A    between atoms: _208  and  _209
REMARK   76  A    between atoms: _218  and  _221
REMARK   77  A    between atoms: _221  and  _222
REMARK   78  A    between atoms: _229  and  _230
REMARK   79  A    between atoms: _233  and  _235
REMARK                            x       y       z     vdW  Elec       q    Type
REMARK                         _______ _______ _______ _____ _____    ______ ____
ROOT
ATOM      1  O   HOH     1      11.675   9.798  68.264  0.00  0.00    +0.000 OA
ENDROOT
TORSDOF 0
REMARK  Name = ../refined-set-2016/4a6s/4a6s_pocket.pdb
REMARK  79 active torsions:
REMARK  status: ('A' for Active; 'I' for Inactive)
REMARK    1  A    between atoms: _1  and  _3
REMARK    2  A    between atoms: _3  and  _4
REMARK    3  A    between atoms: _3  and  _6
REMARK    4  A    between atoms: _6  and  _7
REMARK    5  A    between atoms: _9  and  _11
REMARK    6  A    between atoms: _11  and  _12
REMARK    7  A    between atoms: _11  and  _14
REMARK    8  A    between atoms: _14  and  _15
REMARK    9  A    between atoms: _20  and  _21
REMARK   10  A    between atoms: _23  and  _25
REMARK   11  A    between atoms: _25  and  _26
REMARK   12  A    between atoms: _29  and  _30
REMARK   13  A    between atoms: _35  and  _37
REMARK   14  A    between atoms: _37  and  _38
REMARK   15  A    between atoms: _37  and  _40
REMARK   16  A    between atoms: _40  and  _41
REMARK   17  A    between atoms: _44  and  _46
REMARK   18  A    between atoms: _46  and  _47
REMARK   19  A    between atoms: _46  and  _49
REMARK   20  A    between atoms: _49  and  _50
REMARK   21  A    between atoms: _60  and  _62
REMARK   22  A    between atoms: _62  and  _63
REMARK   23  A    between atoms: _62  and  _65
REMARK   24  A    between atoms: _65  and  _66
REMARK   25  A    between atoms: _69  and  _71
REMARK   26  A    between atoms: _71  and  _72
REMARK   27  A    between atoms: _71  and  _74
REMARK   28  A    between atoms: _74  and  _75
REMARK   29  A    between atoms: _81  and  _82
REMARK   30  A    between atoms: _87  and  _89
REMARK   31  A    between atoms: _89  and  _90
REMARK   32  A    between atoms: _89  and  _92
REMARK   33  A    between atoms: _92  and  _93
REMARK   34  A    between atoms: _96  and  _98
REMARK   35  A    between atoms: _98  and  _99
REMARK   36  A    between atoms: _98  and  _101
REMARK   37  A    between atoms: _101  and  _102
REMARK   38  A    between atoms: _102  and  _103
REMARK   39  A    between atoms: _108  and  _110
REMARK   40  A    between atoms: _110  and  _111
REMARK   41  A    between atoms: _113  and  _115
REMARK   42  A    between atoms: _115  and  _116
REMARK   43  A    between atoms: _115  and  _118
REMARK   44  A    between atoms: _118  and  _119
REMARK   45  A    between atoms: _122  and  _124
REMARK   46  A    between atoms: _124  and  _125
REMARK   47  A    between atoms: _124  and  _127
REMARK   48  A    between atoms: _129  and  _131
REMARK   49  A    between atoms: _131  and  _132
REMARK   50  A    between atoms: _134  and  _136
REMARK   51  A    between atoms: _136  and  _137
REMARK   52  A    between atoms: _136  and  _139
REMARK   53  A    between atoms: _139  and  _140
REMARK   54  A    between atoms: _145  and  _146
REMARK   55  A    between atoms: _148  and  _150
REMARK   56  A    between atoms: _150  and  _151
REMARK   57  A    between atoms: _150  and  _153
REMARK   58  A    between atoms: _153  and  _154
REMARK   59  A    between atoms: _159  and  _161
REMARK   60  A    between atoms: _161  and  _162
REMARK   61  A    between atoms: _161  and  _164
REMARK   62  A    between atoms: _164  and  _165
REMARK   63  A    between atoms: _168  and  _170
REMARK   64  A    between atoms: _170  and  _171
REMARK   65  A    between atoms: _170  and  _173
REMARK   66  A    between atoms: _177  and  _178
REMARK   67  A    between atoms: _183  and  _185
REMARK   68  A    between atoms: _185  and  _186
REMARK   69  A    between atoms: _188  and  _190
REMARK   70  A    between atoms: _190  and  _191
REMARK   71  A    between atoms: _190  and  _193
REMARK   72  A    between atoms: _193  and  _194
REMARK   73  A    between atoms: _199  and  _202
REMARK   74  A    between atoms: _202  and  _203
REMARK   75  A    between atoms: _208  and  _209
REMARK   76  A    between atoms: _218  and  _221
REMARK   77  A    between atoms: _221  and  _222
REMARK   78  A    between atoms: _229  and  _230
REMARK   79  A    between atoms: _233  and  _235
REMARK                            x       y       z     vdW  Elec       q    Type
REMARK                         _______ _______ _______ _____ _____    ______ ____
ROOT
ATOM      1  O   HOH     1       8.894  12.401  71.938  0.00  0.00    +0.000 OA
ENDROOT
TORSDOF 0
