REMARK  Name = ../refined-set-2016/4ymh/4ymh_pocket.pdb
REMARK  227 active torsions:
REMARK  status: ('A' for Active; 'I' for Inactive)
REMARK    1  A    between atoms: _1  and  _3
REMARK    2  A    between atoms: _3  and  _4
REMARK    3  A    between atoms: _3  and  _6
REMARK    4  A    between atoms: _6  and  _7
REMARK    5  A    between atoms: _12  and  _14
REMARK    6  A    between atoms: _14  and  _15
REMARK    7  A    between atoms: _14  and  _17
REMARK    8  A    between atoms: _17  and  _18
REMARK    9  A    between atoms: _28  and  _30
REMARK   10  A    between atoms: _30  and  _31
REMARK   11  A    between atoms: _30  and  _33
REMARK   12  A    between atoms: _33  and  _34
REMARK   13  A    between atoms: _37  and  _39
REMARK   14  A    between atoms: _39  and  _40
REMARK   15  A    between atoms: _39  and  _42
REMARK   16  A    between atoms: _42  and  _43
REMARK   17  A    between atoms: _46  and  _48
REMARK   18  A    between atoms: _48  and  _49
REMARK   19  A    between atoms: _52  and  _54
REMARK   20  A    between atoms: _54  and  _55
REMARK   21  A    between atoms: _54  and  _57
REMARK   22  A    between atoms: _57  and  _58
REMARK   23  A    between atoms: _61  and  _63
REMARK   24  A    between atoms: _63  and  _64
REMARK   25  A    between atoms: _63  and  _66
REMARK   26  A    between atoms: _66  and  _67
REMARK   27  A    between atoms: _67  and  _68
REMARK   28  A    between atoms: _68  and  _69
REMARK   29  A    between atoms: _69  and  _70
REMARK   30  A    between atoms: _74  and  _76
REMARK   31  A    between atoms: _76  and  _77
REMARK   32  A    between atoms: _76  and  _79
REMARK   33  A    between atoms: _79  and  _80
REMARK   34  A    between atoms: _80  and  _81
REMARK   35  A    between atoms: _83  and  _85
REMARK   36  A    between atoms: _85  and  _86
REMARK   37  A    between atoms: _85  and  _88
REMARK   38  A    between atoms: _88  and  _89
REMARK   39  A    between atoms: _91  and  _93
REMARK   40  A    between atoms: _93  and  _94
REMARK   41  A    between atoms: _93  and  _96
REMARK   42  A    between atoms: _96  and  _97
REMARK   43  A    between atoms: _99  and  _101
REMARK   44  A    between atoms: _101  and  _102
REMARK   45  A    between atoms: _101  and  _104
REMARK   46  A    between atoms: _104  and  _105
REMARK   47  A    between atoms: _105  and  _106
REMARK   48  A    between atoms: _111  and  _113
REMARK   49  A    between atoms: _113  and  _114
REMARK   50  A    between atoms: _116  and  _118
REMARK   51  A    between atoms: _118  and  _119
REMARK   52  A    between atoms: _118  and  _121
REMARK   53  A    between atoms: _121  and  _122
REMARK   54  A    between atoms: _122  and  _123
REMARK   55  A    between atoms: _125  and  _127
REMARK   56  A    between atoms: _127  and  _128
REMARK   57  A    between atoms: _127  and  _130
REMARK   58  A    between atoms: _130  and  _131
REMARK   59  A    between atoms: _131  and  _132
REMARK   60  A    between atoms: _135  and  _137
REMARK   61  A    between atoms: _137  and  _138
REMARK   62  A    between atoms: _137  and  _140
REMARK   63  A    between atoms: _140  and  _141
REMARK   64  A    between atoms: _144  and  _146
REMARK   65  A    between atoms: _146  and  _147
REMARK   66  A    between atoms: _149  and  _151
REMARK   67  A    between atoms: _151  and  _152
REMARK   68  A    between atoms: _151  and  _154
REMARK   69  A    between atoms: _156  and  _158
REMARK   70  A    between atoms: _158  and  _159
REMARK   71  A    between atoms: _158  and  _161
REMARK   72  A    between atoms: _161  and  _162
REMARK   73  A    between atoms: _167  and  _168
REMARK   74  A    between atoms: _170  and  _172
REMARK   75  A    between atoms: _172  and  _173
REMARK   76  A    between atoms: _172  and  _175
REMARK   77  A    between atoms: _175  and  _176
REMARK   78  A    between atoms: _178  and  _180
REMARK   79  A    between atoms: _180  and  _181
REMARK   80  A    between atoms: _183  and  _185
REMARK   81  A    between atoms: _185  and  _186
REMARK   82  A    between atoms: _185  and  _188
REMARK   83  A    between atoms: _188  and  _189
REMARK   84  A    between atoms: _194  and  _195
REMARK   85  A    between atoms: _197  and  _199
REMARK   86  A    between atoms: _199  and  _200
REMARK   87  A    between atoms: _199  and  _202
REMARK   88  A    between atoms: _202  and  _203
REMARK   89  A    between atoms: _205  and  _207
REMARK   90  A    between atoms: _207  and  _208
REMARK   91  A    between atoms: _211  and  _213
REMARK   92  A    between atoms: _213  and  _214
REMARK   93  A    between atoms: _213  and  _216
REMARK   94  A    between atoms: _216  and  _217
REMARK   95  A    between atoms: _220  and  _222
REMARK   96  A    between atoms: _222  and  _223
REMARK   97  A    between atoms: _226  and  _228
REMARK   98  A    between atoms: _228  and  _229
REMARK   99  A    between atoms: _228  and  _231
REMARK  100  A    between atoms: _231  and  _232
REMARK  101  A    between atoms: _242  and  _244
REMARK  102  A    between atoms: _244  and  _245
REMARK  103  A    between atoms: _244  and  _247
REMARK  104  A    between atoms: _247  and  _248
REMARK  105  A    between atoms: _251  and  _253
REMARK  106  A    between atoms: _253  and  _254
REMARK  107  A    between atoms: _253  and  _256
REMARK  108  A    between atoms: _256  and  _257
REMARK  109  A    between atoms: _260  and  _262
REMARK  110  A    between atoms: _262  and  _263
REMARK  111  A    between atoms: _262  and  _265
REMARK  112  A    between atoms: _265  and  _266
REMARK  113  A    between atoms: _266  and  _267
REMARK  114  A    between atoms: _270  and  _272
REMARK  115  A    between atoms: _272  and  _273
REMARK  116  A    between atoms: _272  and  _275
REMARK  117  A    between atoms: _275  and  _276
REMARK  118  A    between atoms: _281  and  _282
REMARK  119  A    between atoms: _284  and  _286
REMARK  120  A    between atoms: _286  and  _287
REMARK  121  A    between atoms: _286  and  _289
REMARK  122  A    between atoms: _289  and  _290
REMARK  123  A    between atoms: _293  and  _294
REMARK  124  A    between atoms: _299  and  _301
REMARK  125  A    between atoms: _301  and  _302
REMARK  126  A    between atoms: _301  and  _304
REMARK  127  A    between atoms: _304  and  _305
REMARK  128  A    between atoms: _305  and  _306
REMARK  129  A    between atoms: _306  and  _307
REMARK  130  A    between atoms: _307  and  _308
REMARK  131  A    between atoms: _312  and  _314
REMARK  132  A    between atoms: _314  and  _315
REMARK  133  A    between atoms: _314  and  _317
REMARK  134  A    between atoms: _317  and  _318
REMARK  135  A    between atoms: _318  and  _319
REMARK  136  A    between atoms: _321  and  _323
REMARK  137  A    between atoms: _323  and  _324
REMARK  138  A    between atoms: _323  and  _326
REMARK  139  A    between atoms: _326  and  _327
REMARK  140  A    between atoms: _330  and  _332
REMARK  141  A    between atoms: _332  and  _333
REMARK  142  A    between atoms: _332  and  _335
REMARK  143  A    between atoms: _335  and  _336
REMARK  144  A    between atoms: _338  and  _340
REMARK  145  A    between atoms: _340  and  _341
REMARK  146  A    between atoms: _340  and  _343
REMARK  147  A    between atoms: _343  and  _344
REMARK  148  A    between atoms: _347  and  _349
REMARK  149  A    between atoms: _349  and  _350
REMARK  150  A    between atoms: _349  and  _352
REMARK  151  A    between atoms: _352  and  _353
REMARK  152  A    between atoms: _353  and  _354
REMARK  153  A    between atoms: _357  and  _359
REMARK  154  A    between atoms: _359  and  _360
REMARK  155  A    between atoms: _363  and  _364
REMARK  156  A    between atoms: _369  and  _371
REMARK  157  A    between atoms: _371  and  _372
REMARK  158  A    between atoms: _375  and  _377
REMARK  159  A    between atoms: _377  and  _378
REMARK  160  A    between atoms: _377  and  _380
REMARK  161  A    between atoms: _380  and  _381
REMARK  162  A    between atoms: _381  and  _382
REMARK  163  A    between atoms: _385  and  _387
REMARK  164  A    between atoms: _387  and  _388
REMARK  165  A    between atoms: _387  and  _390
REMARK  166  A    between atoms: _390  and  _391
REMARK  167  A    between atoms: _396  and  _398
REMARK  168  A    between atoms: _398  and  _399
REMARK  169  A    between atoms: _398  and  _401
REMARK  170  A    between atoms: _401  and  _402
REMARK  171  A    between atoms: _405  and  _407
REMARK  172  A    between atoms: _407  and  _408
REMARK  173  A    between atoms: _407  and  _410
REMARK  174  A    between atoms: _410  and  _411
REMARK  175  A    between atoms: _414  and  _416
REMARK  176  A    between atoms: _416  and  _417
REMARK  177  A    between atoms: _416  and  _419
REMARK  178  A    between atoms: _419  and  _420
REMARK  179  A    between atoms: _426  and  _428
REMARK  180  A    between atoms: _428  and  _429
REMARK  181  A    between atoms: _428  and  _431
REMARK  182  A    between atoms: _434  and  _436
REMARK  183  A    between atoms: _436  and  _437
REMARK  184  A    between atoms: _436  and  _439
REMARK  185  A    between atoms: _439  and  _440
REMARK  186  A    between atoms: _443  and  _445
REMARK  187  A    between atoms: _445  and  _446
REMARK  188  A    between atoms: _449  and  _451
REMARK  189  A    between atoms: _451  and  _452
REMARK  190  A    between atoms: _451  and  _454
REMARK  191  A    between atoms: _454  and  _455
REMARK  192  A    between atoms: _460  and  _462
REMARK  193  A    between atoms: _462  and  _463
REMARK  194  A    between atoms: _462  and  _465
REMARK  195  A    between atoms: _465  and  _466
REMARK  196  A    between atoms: _466  and  _467
REMARK  197  A    between atoms: _467  and  _468
REMARK  198  A    between atoms: _468  and  _469
REMARK  199  A    between atoms: _473  and  _475
REMARK  200  A    between atoms: _475  and  _476
REMARK  201  A    between atoms: _475  and  _478
REMARK  202  A    between atoms: _478  and  _479
REMARK  203  A    between atoms: _482  and  _484
REMARK  204  A    between atoms: _484  and  _485
REMARK  205  A    between atoms: _487  and  _489
REMARK  206  A    between atoms: _489  and  _490
REMARK  207  A    between atoms: _489  and  _492
REMARK  208  A    between atoms: _492  and  _493
REMARK  209  A    between atoms: _498  and  _499
REMARK  210  A    between atoms: _501  and  _503
REMARK  211  A    between atoms: _503  and  _504
REMARK  212  A    between atoms: _503  and  _506
REMARK  213  A    between atoms: _506  and  _507
REMARK  214  A    between atoms: _512  and  _513
REMARK  215  A    between atoms: _515  and  _517
REMARK  216  A    between atoms: _517  and  _518
REMARK  217  A    between atoms: _517  and  _520
REMARK  218  A    between atoms: _520  and  _521
REMARK  219  A    between atoms: _524  and  _526
REMARK  220  A    between atoms: _526  and  _527
REMARK  221  A    between atoms: _526  and  _529
REMARK  222  A    between atoms: _529  and  _530
REMARK  223  A    between atoms: _535  and  _537
REMARK  224  A    between atoms: _537  and  _538
REMARK  225  A    between atoms: _537  and  _540
REMARK  226  A    between atoms: _540  and  _541
REMARK  227  A    between atoms: _546  and  _547
REMARK                            x       y       z     vdW  Elec       q    Type
REMARK                         _______ _______ _______ _____ _____    ______ ____
ROOT
ATOM      1  CA  TRP A   2      32.553 276.666 150.841  0.00  0.00    +0.141 C 
ENDROOT
BRANCH   1   4
ATOM      2  C   HIS A   1      31.953 278.872 151.705  0.00  0.00    +0.239 C 
ATOM      3  O   HIS A   1      33.126 279.124 152.005  0.00  0.00    -0.274 OA
ATOM      4  N   TRP A   2      31.589 277.729 151.135  0.00  0.00    -0.298 N 
ATOM      5  H   TRP A   2      30.589 277.584 150.890  0.00  0.00    +0.150 HD
BRANCH   2   6
ATOM      6  CA  HIS A   1      30.828 279.890 151.975  0.00  0.00    +0.151 C 
BRANCH   6   7
ATOM      7  N   HIS A   1      29.843 279.917 150.897  0.00  0.00    -0.238 NA
ATOM      8  H   HIS A   1      28.864 279.615 151.075  0.00  0.00    +0.142 HD
ENDBRANCH   6   7
BRANCH   6   9
ATOM      9  CB  HIS A   1      30.155 279.582 153.311  0.00  0.00    +0.074 C 
BRANCH   9  10
ATOM     10  CG  HIS A   1      31.119 279.420 154.438  0.00  0.00    +0.082 A 
ATOM     11  CD2 HIS A   1      31.553 278.315 155.088  0.00  0.00    +0.115 A 
ATOM     12  NE2 HIS A   1      32.459 278.726 156.034  0.00  0.00    -0.221 NA
ATOM     13  CE1 HIS A   1      32.575 280.041 155.970  0.00  0.00    +0.199 A 
ATOM     14  ND1 HIS A   1      31.783 280.485 155.013  0.00  0.00    -0.227 NA
ENDBRANCH   9  10
ENDBRANCH   6   9
ENDBRANCH   2   6
ENDBRANCH   1   4
BRANCH   1  15
ATOM     15  C   TRP A   2      33.585 277.164 149.823  0.00  0.00    +0.227 C 
ATOM     16  O   TRP A   2      34.812 277.060 150.031  0.00  0.00    -0.286 OA
ENDBRANCH   1  15
BRANCH   1  17
ATOM     17  CB  TRP A   2      31.801 275.431 150.328  0.00  0.00    +0.056 C 
BRANCH  17  18
ATOM     18  CG  TRP A   2      32.606 274.178 150.180  0.00  0.00    -0.002 A 
ATOM     19  CD1 TRP A   2      32.940 273.291 151.166  0.00  0.00    +0.068 A 
ATOM     20  NE1 TRP A   2      33.661 272.247 150.639  0.00  0.00    -0.352 N 
ATOM     21  HE1 TRP A   2      34.039 271.441 151.177  0.00  0.00    +0.166 HD
ATOM     22  CE2 TRP A   2      33.801 272.440 149.289  0.00  0.00    +0.056 A 
ATOM     23  CZ2 TRP A   2      34.449 271.663 148.333  0.00  0.00    +0.017 A 
ATOM     24  CH2 TRP A   2      34.422 272.103 147.037  0.00  0.00    +0.001 A 
ATOM     25  CZ3 TRP A   2      33.771 273.295 146.680  0.00  0.00    +0.000 A 
ATOM     26  CE3 TRP A   2      33.131 274.071 147.629  0.00  0.00    +0.001 A 
ATOM     27  CD2 TRP A   2      33.141 273.645 148.963  0.00  0.00    +0.013 A 
ENDBRANCH  17  18
ENDBRANCH   1  17
TORSDOF 8
REMARK  Name = ../refined-set-2016/4ymh/4ymh_pocket.pdb
REMARK  227 active torsions:
REMARK  status: ('A' for Active; 'I' for Inactive)
REMARK    1  A    between atoms: _1  and  _3
REMARK    2  A    between atoms: _3  and  _4
REMARK    3  A    between atoms: _3  and  _6
REMARK    4  A    between atoms: _6  and  _7
REMARK    5  A    between atoms: _12  and  _14
REMARK    6  A    between atoms: _14  and  _15
REMARK    7  A    between atoms: _14  and  _17
REMARK    8  A    between atoms: _17  and  _18
REMARK    9  A    between atoms: _28  and  _30
REMARK   10  A    between atoms: _30  and  _31
REMARK   11  A    between atoms: _30  and  _33
REMARK   12  A    between atoms: _33  and  _34
REMARK   13  A    between atoms: _37  and  _39
REMARK   14  A    between atoms: _39  and  _40
REMARK   15  A    between atoms: _39  and  _42
REMARK   16  A    between atoms: _42  and  _43
REMARK   17  A    between atoms: _46  and  _48
REMARK   18  A    between atoms: _48  and  _49
REMARK   19  A    between atoms: _52  and  _54
REMARK   20  A    between atoms: _54  and  _55
REMARK   21  A    between atoms: _54  and  _57
REMARK   22  A    between atoms: _57  and  _58
REMARK   23  A    between atoms: _61  and  _63
REMARK   24  A    between atoms: _63  and  _64
REMARK   25  A    between atoms: _63  and  _66
REMARK   26  A    between atoms: _66  and  _67
REMARK   27  A    between atoms: _67  and  _68
REMARK   28  A    between atoms: _68  and  _69
REMARK   29  A    between atoms: _69  and  _70
REMARK   30  A    between atoms: _74  and  _76
REMARK   31  A    between atoms: _76  and  _77
REMARK   32  A    between atoms: _76  and  _79
REMARK   33  A    between atoms: _79  and  _80
REMARK   34  A    between atoms: _80  and  _81
REMARK   35  A    between atoms: _83  and  _85
REMARK   36  A    between atoms: _85  and  _86
REMARK   37  A    between atoms: _85  and  _88
REMARK   38  A    between atoms: _88  and  _89
REMARK   39  A    between atoms: _91  and  _93
REMARK   40  A    between atoms: _93  and  _94
REMARK   41  A    between atoms: _93  and  _96
REMARK   42  A    between atoms: _96  and  _97
REMARK   43  A    between atoms: _99  and  _101
REMARK   44  A    between atoms: _101  and  _102
REMARK   45  A    between atoms: _101  and  _104
REMARK   46  A    between atoms: _104  and  _105
REMARK   47  A    between atoms: _105  and  _106
REMARK   48  A    between atoms: _111  and  _113
REMARK   49  A    between atoms: _113  and  _114
REMARK   50  A    between atoms: _116  and  _118
REMARK   51  A    between atoms: _118  and  _119
REMARK   52  A    between atoms: _118  and  _121
REMARK   53  A    between atoms: _121  and  _122
REMARK   54  A    between atoms: _122  and  _123
REMARK   55  A    between atoms: _125  and  _127
REMARK   56  A    between atoms: _127  and  _128
REMARK   57  A    between atoms: _127  and  _130
REMARK   58  A    between atoms: _130  and  _131
REMARK   59  A    between atoms: _131  and  _132
REMARK   60  A    between atoms: _135  and  _137
REMARK   61  A    between atoms: _137  and  _138
REMARK   62  A    between atoms: _137  and  _140
REMARK   63  A    between atoms: _140  and  _141
REMARK   64  A    between atoms: _144  and  _146
REMARK   65  A    between atoms: _146  and  _147
REMARK   66  A    between atoms: _149  and  _151
REMARK   67  A    between atoms: _151  and  _152
REMARK   68  A    between atoms: _151  and  _154
REMARK   69  A    between atoms: _156  and  _158
REMARK   70  A    between atoms: _158  and  _159
REMARK   71  A    between atoms: _158  and  _161
REMARK   72  A    between atoms: _161  and  _162
REMARK   73  A    between atoms: _167  and  _168
REMARK   74  A    between atoms: _170  and  _172
REMARK   75  A    between atoms: _172  and  _173
REMARK   76  A    between atoms: _172  and  _175
REMARK   77  A    between atoms: _175  and  _176
REMARK   78  A    between atoms: _178  and  _180
REMARK   79  A    between atoms: _180  and  _181
REMARK   80  A    between atoms: _183  and  _185
REMARK   81  A    between atoms: _185  and  _186
REMARK   82  A    between atoms: _185  and  _188
REMARK   83  A    between atoms: _188  and  _189
REMARK   84  A    between atoms: _194  and  _195
REMARK   85  A    between atoms: _197  and  _199
REMARK   86  A    between atoms: _199  and  _200
REMARK   87  A    between atoms: _199  and  _202
REMARK   88  A    between atoms: _202  and  _203
REMARK   89  A    between atoms: _205  and  _207
REMARK   90  A    between atoms: _207  and  _208
REMARK   91  A    between atoms: _211  and  _213
REMARK   92  A    between atoms: _213  and  _214
REMARK   93  A    between atoms: _213  and  _216
REMARK   94  A    between atoms: _216  and  _217
REMARK   95  A    between atoms: _220  and  _222
REMARK   96  A    between atoms: _222  and  _223
REMARK   97  A    between atoms: _226  and  _228
REMARK   98  A    between atoms: _228  and  _229
REMARK   99  A    between atoms: _228  and  _231
REMARK  100  A    between atoms: _231  and  _232
REMARK  101  A    between atoms: _242  and  _244
REMARK  102  A    between atoms: _244  and  _245
REMARK  103  A    between atoms: _244  and  _247
REMARK  104  A    between atoms: _247  and  _248
REMARK  105  A    between atoms: _251  and  _253
REMARK  106  A    between atoms: _253  and  _254
REMARK  107  A    between atoms: _253  and  _256
REMARK  108  A    between atoms: _256  and  _257
REMARK  109  A    between atoms: _260  and  _262
REMARK  110  A    between atoms: _262  and  _263
REMARK  111  A    between atoms: _262  and  _265
REMARK  112  A    between atoms: _265  and  _266
REMARK  113  A    between atoms: _266  and  _267
REMARK  114  A    between atoms: _270  and  _272
REMARK  115  A    between atoms: _272  and  _273
REMARK  116  A    between atoms: _272  and  _275
REMARK  117  A    between atoms: _275  and  _276
REMARK  118  A    between atoms: _281  and  _282
REMARK  119  A    between atoms: _284  and  _286
REMARK  120  A    between atoms: _286  and  _287
REMARK  121  A    between atoms: _286  and  _289
REMARK  122  A    between atoms: _289  and  _290
REMARK  123  A    between atoms: _293  and  _294
REMARK  124  A    between atoms: _299  and  _301
REMARK  125  A    between atoms: _301  and  _302
REMARK  126  A    between atoms: _301  and  _304
REMARK  127  A    between atoms: _304  and  _305
REMARK  128  A    between atoms: _305  and  _306
REMARK  129  A    between atoms: _306  and  _307
REMARK  130  A    between atoms: _307  and  _308
REMARK  131  A    between atoms: _312  and  _314
REMARK  132  A    between atoms: _314  and  _315
REMARK  133  A    between atoms: _314  and  _317
REMARK  134  A    between atoms: _317  and  _318
REMARK  135  A    between atoms: _318  and  _319
REMARK  136  A    between atoms: _321  and  _323
REMARK  137  A    between atoms: _323  and  _324
REMARK  138  A    between atoms: _323  and  _326
REMARK  139  A    between atoms: _326  and  _327
REMARK  140  A    between atoms: _330  and  _332
REMARK  141  A    between atoms: _332  and  _333
REMARK  142  A    between atoms: _332  and  _335
REMARK  143  A    between atoms: _335  and  _336
REMARK  144  A    between atoms: _338  and  _340
REMARK  145  A    between atoms: _340  and  _341
REMARK  146  A    between atoms: _340  and  _343
REMARK  147  A    between atoms: _343  and  _344
REMARK  148  A    between atoms: _347  and  _349
REMARK  149  A    between atoms: _349  and  _350
REMARK  150  A    between atoms: _349  and  _352
REMARK  151  A    between atoms: _352  and  _353
REMARK  152  A    between atoms: _353  and  _354
REMARK  153  A    between atoms: _357  and  _359
REMARK  154  A    between atoms: _359  and  _360
REMARK  155  A    between atoms: _363  and  _364
REMARK  156  A    between atoms: _369  and  _371
REMARK  157  A    between atoms: _371  and  _372
REMARK  158  A    between atoms: _375  and  _377
REMARK  159  A    between atoms: _377  and  _378
REMARK  160  A    between atoms: _377  and  _380
REMARK  161  A    between atoms: _380  and  _381
REMARK  162  A    between atoms: _381  and  _382
REMARK  163  A    between atoms: _385  and  _387
REMARK  164  A    between atoms: _387  and  _388
REMARK  165  A    between atoms: _387  and  _390
REMARK  166  A    between atoms: _390  and  _391
REMARK  167  A    between atoms: _396  and  _398
REMARK  168  A    between atoms: _398  and  _399
REMARK  169  A    between atoms: _398  and  _401
REMARK  170  A    between atoms: _401  and  _402
REMARK  171  A    between atoms: _405  and  _407
REMARK  172  A    between atoms: _407  and  _408
REMARK  173  A    between atoms: _407  and  _410
REMARK  174  A    between atoms: _410  and  _411
REMARK  175  A    between atoms: _414  and  _416
REMARK  176  A    between atoms: _416  and  _417
REMARK  177  A    between atoms: _416  and  _419
REMARK  178  A    between atoms: _419  and  _420
REMARK  179  A    between atoms: _426  and  _428
REMARK  180  A    between atoms: _428  and  _429
REMARK  181  A    between atoms: _428  and  _431
REMARK  182  A    between atoms: _434  and  _436
REMARK  183  A    between atoms: _436  and  _437
REMARK  184  A    between atoms: _436  and  _439
REMARK  185  A    between atoms: _439  and  _440
REMARK  186  A    between atoms: _443  and  _445
REMARK  187  A    between atoms: _445  and  _446
REMARK  188  A    between atoms: _449  and  _451
REMARK  189  A    between atoms: _451  and  _452
REMARK  190  A    between atoms: _451  and  _454
REMARK  191  A    between atoms: _454  and  _455
REMARK  192  A    between atoms: _460  and  _462
REMARK  193  A    between atoms: _462  and  _463
REMARK  194  A    between atoms: _462  and  _465
REMARK  195  A    between atoms: _465  and  _466
REMARK  196  A    between atoms: _466  and  _467
REMARK  197  A    between atoms: _467  and  _468
REMARK  198  A    between atoms: _468  and  _469
REMARK  199  A    between atoms: _473  and  _475
REMARK  200  A    between atoms: _475  and  _476
REMARK  201  A    between atoms: _475  and  _478
REMARK  202  A    between atoms: _478  and  _479
REMARK  203  A    between atoms: _482  and  _484
REMARK  204  A    between atoms: _484  and  _485
REMARK  205  A    between atoms: _487  and  _489
REMARK  206  A    between atoms: _489  and  _490
REMARK  207  A    between atoms: _489  and  _492
REMARK  208  A    between atoms: _492  and  _493
REMARK  209  A    between atoms: _498  and  _499
REMARK  210  A    between atoms: _501  and  _503
REMARK  211  A    between atoms: _503  and  _504
REMARK  212  A    between atoms: _503  and  _506
REMARK  213  A    between atoms: _506  and  _507
REMARK  214  A    between atoms: _512  and  _513
REMARK  215  A    between atoms: _515  and  _517
REMARK  216  A    between atoms: _517  and  _518
REMARK  217  A    between atoms: _517  and  _520
REMARK  218  A    between atoms: _520  and  _521
REMARK  219  A    between atoms: _524  and  _526
REMARK  220  A    between atoms: _526  and  _527
REMARK  221  A    between atoms: _526  and  _529
REMARK  222  A    between atoms: _529  and  _530
REMARK  223  A    between atoms: _535  and  _537
REMARK  224  A    between atoms: _537  and  _538
REMARK  225  A    between atoms: _537  and  _540
REMARK  226  A    between atoms: _540  and  _541
REMARK  227  A    between atoms: _546  and  _547
REMARK                            x       y       z     vdW  Elec       q    Type
REMARK                         _______ _______ _______ _____ _____    ______ ____
ROOT
ATOM      1  CA  THR A   1      36.848 279.290 152.096  0.00  0.00    +0.160 C 
ENDROOT
BRANCH   1   2
ATOM      2  N   THR A   1      35.821 279.880 151.250  0.00  0.00    -0.237 NA
ATOM      3  H   THR A   1      34.866 279.468 151.244  0.00  0.00    +0.142 HD
ENDBRANCH   1   2
BRANCH   1   4
ATOM      4  CB  THR A   1      36.284 278.156 152.972  0.00  0.00    +0.134 C 
ATOM      5  CG2 THR A   1      37.405 277.514 153.801  0.00  0.00    +0.034 C 
BRANCH   4   6
ATOM      6  OG1 THR A   1      35.292 278.687 153.856  0.00  0.00    -0.383 OA
ATOM      7  HG1 THR A   1      34.560 279.090 153.325  0.00  0.00    +0.210 HD
ENDBRANCH   4   6
ENDBRANCH   1   4
BRANCH   1   8
ATOM      8  C   THR A   1      37.990 278.756 151.239  0.00  0.00    +0.227 C 
ATOM      9  O   THR A   1      39.165 278.969 151.549  0.00  0.00    -0.287 OA
ENDBRANCH   1   8
TORSDOF 4
REMARK  Name = ../refined-set-2016/4ymh/4ymh_pocket.pdb
REMARK  227 active torsions:
REMARK  status: ('A' for Active; 'I' for Inactive)
REMARK    1  A    between atoms: _1  and  _3
REMARK    2  A    between atoms: _3  and  _4
REMARK    3  A    between atoms: _3  and  _6
REMARK    4  A    between atoms: _6  and  _7
REMARK    5  A    between atoms: _12  and  _14
REMARK    6  A    between atoms: _14  and  _15
REMARK    7  A    between atoms: _14  and  _17
REMARK    8  A    between atoms: _17  and  _18
REMARK    9  A    between atoms: _28  and  _30
REMARK   10  A    between atoms: _30  and  _31
REMARK   11  A    between atoms: _30  and  _33
REMARK   12  A    between atoms: _33  and  _34
REMARK   13  A    between atoms: _37  and  _39
REMARK   14  A    between atoms: _39  and  _40
REMARK   15  A    between atoms: _39  and  _42
REMARK   16  A    between atoms: _42  and  _43
REMARK   17  A    between atoms: _46  and  _48
REMARK   18  A    between atoms: _48  and  _49
REMARK   19  A    between atoms: _52  and  _54
REMARK   20  A    between atoms: _54  and  _55
REMARK   21  A    between atoms: _54  and  _57
REMARK   22  A    between atoms: _57  and  _58
REMARK   23  A    between atoms: _61  and  _63
REMARK   24  A    between atoms: _63  and  _64
REMARK   25  A    between atoms: _63  and  _66
REMARK   26  A    between atoms: _66  and  _67
REMARK   27  A    between atoms: _67  and  _68
REMARK   28  A    between atoms: _68  and  _69
REMARK   29  A    between atoms: _69  and  _70
REMARK   30  A    between atoms: _74  and  _76
REMARK   31  A    between atoms: _76  and  _77
REMARK   32  A    between atoms: _76  and  _79
REMARK   33  A    between atoms: _79  and  _80
REMARK   34  A    between atoms: _80  and  _81
REMARK   35  A    between atoms: _83  and  _85
REMARK   36  A    between atoms: _85  and  _86
REMARK   37  A    between atoms: _85  and  _88
REMARK   38  A    between atoms: _88  and  _89
REMARK   39  A    between atoms: _91  and  _93
REMARK   40  A    between atoms: _93  and  _94
REMARK   41  A    between atoms: _93  and  _96
REMARK   42  A    between atoms: _96  and  _97
REMARK   43  A    between atoms: _99  and  _101
REMARK   44  A    between atoms: _101  and  _102
REMARK   45  A    between atoms: _101  and  _104
REMARK   46  A    between atoms: _104  and  _105
REMARK   47  A    between atoms: _105  and  _106
REMARK   48  A    between atoms: _111  and  _113
REMARK   49  A    between atoms: _113  and  _114
REMARK   50  A    between atoms: _116  and  _118
REMARK   51  A    between atoms: _118  and  _119
REMARK   52  A    between atoms: _118  and  _121
REMARK   53  A    between atoms: _121  and  _122
REMARK   54  A    between atoms: _122  and  _123
REMARK   55  A    between atoms: _125  and  _127
REMARK   56  A    between atoms: _127  and  _128
REMARK   57  A    between atoms: _127  and  _130
REMARK   58  A    between atoms: _130  and  _131
REMARK   59  A    between atoms: _131  and  _132
REMARK   60  A    between atoms: _135  and  _137
REMARK   61  A    between atoms: _137  and  _138
REMARK   62  A    between atoms: _137  and  _140
REMARK   63  A    between atoms: _140  and  _141
REMARK   64  A    between atoms: _144  and  _146
REMARK   65  A    between atoms: _146  and  _147
REMARK   66  A    between atoms: _149  and  _151
REMARK   67  A    between atoms: _151  and  _152
REMARK   68  A    between atoms: _151  and  _154
REMARK   69  A    between atoms: _156  and  _158
REMARK   70  A    between atoms: _158  and  _159
REMARK   71  A    between atoms: _158  and  _161
REMARK   72  A    between atoms: _161  and  _162
REMARK   73  A    between atoms: _167  and  _168
REMARK   74  A    between atoms: _170  and  _172
REMARK   75  A    between atoms: _172  and  _173
REMARK   76  A    between atoms: _172  and  _175
REMARK   77  A    between atoms: _175  and  _176
REMARK   78  A    between atoms: _178  and  _180
REMARK   79  A    between atoms: _180  and  _181
REMARK   80  A    between atoms: _183  and  _185
REMARK   81  A    between atoms: _185  and  _186
REMARK   82  A    between atoms: _185  and  _188
REMARK   83  A    between atoms: _188  and  _189
REMARK   84  A    between atoms: _194  and  _195
REMARK   85  A    between atoms: _197  and  _199
REMARK   86  A    between atoms: _199  and  _200
REMARK   87  A    between atoms: _199  and  _202
REMARK   88  A    between atoms: _202  and  _203
REMARK   89  A    between atoms: _205  and  _207
REMARK   90  A    between atoms: _207  and  _208
REMARK   91  A    between atoms: _211  and  _213
REMARK   92  A    between atoms: _213  and  _214
REMARK   93  A    between atoms: _213  and  _216
REMARK   94  A    between atoms: _216  and  _217
REMARK   95  A    between atoms: _220  and  _222
REMARK   96  A    between atoms: _222  and  _223
REMARK   97  A    between atoms: _226  and  _228
REMARK   98  A    between atoms: _228  and  _229
REMARK   99  A    between atoms: _228  and  _231
REMARK  100  A    between atoms: _231  and  _232
REMARK  101  A    between atoms: _242  and  _244
REMARK  102  A    between atoms: _244  and  _245
REMARK  103  A    between atoms: _244  and  _247
REMARK  104  A    between atoms: _247  and  _248
REMARK  105  A    between atoms: _251  and  _253
REMARK  106  A    between atoms: _253  and  _254
REMARK  107  A    between atoms: _253  and  _256
REMARK  108  A    between atoms: _256  and  _257
REMARK  109  A    between atoms: _260  and  _262
REMARK  110  A    between atoms: _262  and  _263
REMARK  111  A    between atoms: _262  and  _265
REMARK  112  A    between atoms: _265  and  _266
REMARK  113  A    between atoms: _266  and  _267
REMARK  114  A    between atoms: _270  and  _272
REMARK  115  A    between atoms: _272  and  _273
REMARK  116  A    between atoms: _272  and  _275
REMARK  117  A    between atoms: _275  and  _276
REMARK  118  A    between atoms: _281  and  _282
REMARK  119  A    between atoms: _284  and  _286
REMARK  120  A    between atoms: _286  and  _287
REMARK  121  A    between atoms: _286  and  _289
REMARK  122  A    between atoms: _289  and  _290
REMARK  123  A    between atoms: _293  and  _294
REMARK  124  A    between atoms: _299  and  _301
REMARK  125  A    between atoms: _301  and  _302
REMARK  126  A    between atoms: _301  and  _304
REMARK  127  A    between atoms: _304  and  _305
REMARK  128  A    between atoms: _305  and  _306
REMARK  129  A    between atoms: _306  and  _307
REMARK  130  A    between atoms: _307  and  _308
REMARK  131  A    between atoms: _312  and  _314
REMARK  132  A    between atoms: _314  and  _315
REMARK  133  A    between atoms: _314  and  _317
REMARK  134  A    between atoms: _317  and  _318
REMARK  135  A    between atoms: _318  and  _319
REMARK  136  A    between atoms: _321  and  _323
REMARK  137  A    between atoms: _323  and  _324
REMARK  138  A    between atoms: _323  and  _326
REMARK  139  A    between atoms: _326  and  _327
REMARK  140  A    between atoms: _330  and  _332
REMARK  141  A    between atoms: _332  and  _333
REMARK  142  A    between atoms: _332  and  _335
REMARK  143  A    between atoms: _335  and  _336
REMARK  144  A    between atoms: _338  and  _340
REMARK  145  A    between atoms: _340  and  _341
REMARK  146  A    between atoms: _340  and  _343
REMARK  147  A    between atoms: _343  and  _344
REMARK  148  A    between atoms: _347  and  _349
REMARK  149  A    between atoms: _349  and  _350
REMARK  150  A    between atoms: _349  and  _352
REMARK  151  A    between atoms: _352  and  _353
REMARK  152  A    between atoms: _353  and  _354
REMARK  153  A    between atoms: _357  and  _359
REMARK  154  A    between atoms: _359  and  _360
REMARK  155  A    between atoms: _363  and  _364
REMARK  156  A    between atoms: _369  and  _371
REMARK  157  A    between atoms: _371  and  _372
REMARK  158  A    between atoms: _375  and  _377
REMARK  159  A    between atoms: _377  and  _378
REMARK  160  A    between atoms: _377  and  _380
REMARK  161  A    between atoms: _380  and  _381
REMARK  162  A    between atoms: _381  and  _382
REMARK  163  A    between atoms: _385  and  _387
REMARK  164  A    between atoms: _387  and  _388
REMARK  165  A    between atoms: _387  and  _390
REMARK  166  A    between atoms: _390  and  _391
REMARK  167  A    between atoms: _396  and  _398
REMARK  168  A    between atoms: _398  and  _399
REMARK  169  A    between atoms: _398  and  _401
REMARK  170  A    between atoms: _401  and  _402
REMARK  171  A    between atoms: _405  and  _407
REMARK  172  A    between atoms: _407  and  _408
REMARK  173  A    between atoms: _407  and  _410
REMARK  174  A    between atoms: _410  and  _411
REMARK  175  A    between atoms: _414  and  _416
REMARK  176  A    between atoms: _416  and  _417
REMARK  177  A    between atoms: _416  and  _419
REMARK  178  A    between atoms: _419  and  _420
REMARK  179  A    between atoms: _426  and  _428
REMARK  180  A    between atoms: _428  and  _429
REMARK  181  A    between atoms: _428  and  _431
REMARK  182  A    between atoms: _434  and  _436
REMARK  183  A    between atoms: _436  and  _437
REMARK  184  A    between atoms: _436  and  _439
REMARK  185  A    between atoms: _439  and  _440
REMARK  186  A    between atoms: _443  and  _445
REMARK  187  A    between atoms: _445  and  _446
REMARK  188  A    between atoms: _449  and  _451
REMARK  189  A    between atoms: _451  and  _452
REMARK  190  A    between atoms: _451  and  _454
REMARK  191  A    between atoms: _454  and  _455
REMARK  192  A    between atoms: _460  and  _462
REMARK  193  A    between atoms: _462  and  _463
REMARK  194  A    between atoms: _462  and  _465
REMARK  195  A    between atoms: _465  and  _466
REMARK  196  A    between atoms: _466  and  _467
REMARK  197  A    between atoms: _467  and  _468
REMARK  198  A    between atoms: _468  and  _469
REMARK  199  A    between atoms: _473  and  _475
REMARK  200  A    between atoms: _475  and  _476
REMARK  201  A    between atoms: _475  and  _478
REMARK  202  A    between atoms: _478  and  _479
REMARK  203  A    between atoms: _482  and  _484
REMARK  204  A    between atoms: _484  and  _485
REMARK  205  A    between atoms: _487  and  _489
REMARK  206  A    between atoms: _489  and  _490
REMARK  207  A    between atoms: _489  and  _492
REMARK  208  A    between atoms: _492  and  _493
REMARK  209  A    between atoms: _498  and  _499
REMARK  210  A    between atoms: _501  and  _503
REMARK  211  A    between atoms: _503  and  _504
REMARK  212  A    between atoms: _503  and  _506
REMARK  213  A    between atoms: _506  and  _507
REMARK  214  A    between atoms: _512  and  _513
REMARK  215  A    between atoms: _515  and  _517
REMARK  216  A    between atoms: _517  and  _518
REMARK  217  A    between atoms: _517  and  _520
REMARK  218  A    between atoms: _520  and  _521
REMARK  219  A    between atoms: _524  and  _526
REMARK  220  A    between atoms: _526  and  _527
REMARK  221  A    between atoms: _526  and  _529
REMARK  222  A    between atoms: _529  and  _530
REMARK  223  A    between atoms: _535  and  _537
REMARK  224  A    between atoms: _537  and  _538
REMARK  225  A    between atoms: _537  and  _540
REMARK  226  A    between atoms: _540  and  _541
REMARK  227  A    between atoms: _546  and  _547
REMARK                            x       y       z     vdW  Elec       q    Type
REMARK                         _______ _______ _______ _____ _____    ______ ____
ROOT
ATOM      1  CA  LYS A   4      40.920 270.678 156.005  0.00  0.00    +0.149 C 
ENDROOT
BRANCH   1   2
ATOM      2  C   LYS A   4      39.395 270.709 156.047  0.00  0.00    +0.241 C 
ATOM      3  O   LYS A   4      38.775 270.079 156.908  0.00  0.00    -0.273 OA
ATOM      4  N   MET A   5      38.790 271.462 155.130  0.00  0.00    -0.297 N 
ATOM      5  H   MET A   5      39.364 271.958 154.419  0.00  0.00    +0.150 HD
BRANCH   4   6
ATOM      6  CA  MET A   5      37.337 271.605 155.103  0.00  0.00    +0.149 C 
BRANCH   6   7
ATOM      7  C   MET A   5      36.659 270.363 154.523  0.00  0.00    +0.241 C 
ATOM      8  N   SER A   6      35.469 270.042 155.029  0.00  0.00    -0.295 N 
ATOM      9  H   SER A   6      35.079 270.606 155.811  0.00  0.00    +0.150 HD
ATOM     10  O   MET A   5      37.208 269.705 153.638  0.00  0.00    -0.273 OA
BRANCH   8  11
ATOM     11  CA  SER A   6      34.700 268.914 154.509  0.00  0.00    +0.178 C 
BRANCH  11  12
ATOM     12  C   SER A   6      34.302 269.180 153.056  0.00  0.00    +0.243 C 
ATOM     13  O   SER A   6      34.348 270.322 152.607  0.00  0.00    -0.273 OA
ATOM     14  N   SER A   7      33.951 268.126 152.320  0.00  0.00    -0.296 N 
ATOM     15  H   SER A   7      34.045 267.176 152.732  0.00  0.00    +0.150 HD
BRANCH  14  16
ATOM     16  CA  SER A   7      33.437 268.253 150.953  0.00  0.00    +0.166 C 
BRANCH  16  17
ATOM     17  CB  SER A   7      31.971 268.706 150.925  0.00  0.00    +0.229 C 
ATOM     18  OG  SER A   7      31.314 268.784 151.962  0.00  0.00    -0.286 OA
ENDBRANCH  16  17
BRANCH  16  19
ATOM     19  C   SER A   7      33.549 266.922 150.220  0.00  0.00    +0.165 C 
BRANCH  19  20
ATOM     20  O   SER A   7      32.592 266.005 150.743  0.00  0.00    -0.380 OA
ATOM     21  H   SER A   7      32.668 265.142 150.264  0.00  0.00    +0.211 HD
ENDBRANCH  19  20
ENDBRANCH  16  19
ENDBRANCH  14  16
ENDBRANCH  11  12
BRANCH  11  22
ATOM     22  CB  SER A   6      33.474 268.661 155.389  0.00  0.00    +0.166 C 
BRANCH  22  23
ATOM     23  OG  SER A   6      33.881 268.371 156.724  0.00  0.00    -0.380 OA
ATOM     24  H   SER A   6      34.389 269.139 157.087  0.00  0.00    +0.211 HD
ENDBRANCH  22  23
ENDBRANCH  11  22
ENDBRANCH   8  11
ENDBRANCH   6   7
BRANCH   6  25
ATOM     25  CB  MET A   5      36.941 272.849 154.297  0.00  0.00    +0.041 C 
BRANCH  25  26
ATOM     26  CG  MET A   5      35.446 273.097 154.198  0.00  0.00    +0.060 C 
BRANCH  26  27
ATOM     27  SD  MET A   5      35.159 274.723 153.484  0.00  0.00    -0.139 S 
ATOM     28  CE  MET A   5      36.128 274.583 151.984  0.00  0.00    +0.069 C 
ENDBRANCH  26  27
ENDBRANCH  25  26
ENDBRANCH   6  25
ENDBRANCH   4   6
ENDBRANCH   1   2
BRANCH   1  30
ATOM     29  C   ASP A   3      41.209 270.283 153.598  0.00  0.00    +0.241 C 
ATOM     30  N   LYS A   4      41.441 271.023 154.682  0.00  0.00    -0.297 N 
ATOM     31  H   LYS A   4      42.017 271.883 154.583  0.00  0.00    +0.150 HD
ATOM     32  O   ASP A   3      40.635 269.193 153.637  0.00  0.00    -0.273 OA
BRANCH  29  33
ATOM     33  CA  ASP A   3      41.691 270.861 152.263  0.00  0.00    +0.160 C 
BRANCH  33  36
ATOM     34  C   ALA A   2      40.945 273.161 152.616  0.00  0.00    +0.241 C 
ATOM     35  O   ALA A   2      39.775 272.808 152.763  0.00  0.00    -0.273 OA
ATOM     36  N   ASP A   3      41.932 272.302 152.360  0.00  0.00    -0.297 N 
ATOM     37  H   ASP A   3      42.897 272.665 152.226  0.00  0.00    +0.150 HD
BRANCH  34  38
ATOM     38  CA  ALA A   2      41.324 274.637 152.740  0.00  0.00    +0.149 C 
ATOM     39  CB  ALA A   2      40.677 275.441 151.621  0.00  0.00    +0.031 C 
BRANCH  38  42
ATOM     40  C   ASP A   1      43.523 274.526 153.792  0.00  0.00    +0.239 C 
ATOM     41  O   ASP A   1      43.067 273.980 154.801  0.00  0.00    -0.274 OA
ATOM     42  N   ALA A   2      42.772 274.848 152.742  0.00  0.00    -0.297 N 
ATOM     43  H   ALA A   2      43.225 275.260 151.902  0.00  0.00    +0.150 HD
BRANCH  40  44
ATOM     44  CA  ASP A   1      45.011 274.849 153.688  0.00  0.00    +0.156 C 
BRANCH  44  45
ATOM     45  N   ASP A   1      45.229 276.133 153.025  0.00  0.00    -0.238 NA
ATOM     46  H   ASP A   1      45.081 277.009 153.566  0.00  0.00    +0.142 HD
ENDBRANCH  44  45
BRANCH  44  47
ATOM     47  CB  ASP A   1      45.649 274.845 155.088  0.00  0.00    +0.140 C 
BRANCH  47  48
ATOM     48  CG  ASP A   1      44.986 275.831 156.052  0.00  0.00    +0.367 C 
ATOM     49  OD2 ASP A   1      45.149 275.657 157.279  0.00  0.00    -0.246 OA
ATOM     50  OD1 ASP A   1      44.310 276.779 155.594  0.00  0.00    -0.246 OA
ENDBRANCH  47  48
ENDBRANCH  44  47
ENDBRANCH  40  44
ENDBRANCH  38  42
ENDBRANCH  34  38
ENDBRANCH  33  36
BRANCH  33  51
ATOM     51  CB  ASP A   3      42.953 270.127 151.785  0.00  0.00    +0.143 C 
BRANCH  51  52
ATOM     52  CG  ASP A   3      44.224 270.658 152.426  0.00  0.00    +0.367 C 
ATOM     53  OD2 ASP A   3      44.253 271.843 152.820  0.00  0.00    -0.246 OA
ATOM     54  OD1 ASP A   3      45.210 269.892 152.523  0.00  0.00    -0.246 OA
ENDBRANCH  51  52
ENDBRANCH  33  51
ENDBRANCH  29  33
ENDBRANCH   1  30
BRANCH   1  55
ATOM     55  CB  LYS A   4      41.461 271.640 157.068  0.00  0.00    +0.029 C 
BRANCH  55  56
ATOM     56  CG  LYS A   4      42.964 271.618 157.267  0.00  0.00    +0.000 C 
BRANCH  56  57
ATOM     57  CD  LYS A   4      43.341 272.490 158.454  0.00  0.00    -0.024 C 
BRANCH  57  58
ATOM     58  CE  LYS A   4      44.842 272.507 158.680  0.00  0.00    -0.086 C 
BRANCH  58  59
ATOM     59  NZ  LYS A   4      45.180 273.208 159.943  0.00  0.00    +0.380 N 
ATOM     60  HZ1 LYS A   4      44.727 272.719 160.741  0.00  0.00    -0.089 HD
ATOM     61  HZ2 LYS A   4      46.212 273.206 160.074  0.00  0.00    -0.089 HD
ATOM     62  HZ3 LYS A   4      44.838 274.189 159.896  0.00  0.00    -0.089 HD
ENDBRANCH  58  59
ENDBRANCH  57  58
ENDBRANCH  56  57
ENDBRANCH  55  56
ENDBRANCH   1  55
TORSDOF 30
REMARK  Name = ../refined-set-2016/4ymh/4ymh_pocket.pdb
REMARK  227 active torsions:
REMARK  status: ('A' for Active; 'I' for Inactive)
REMARK    1  A    between atoms: _1  and  _3
REMARK    2  A    between atoms: _3  and  _4
REMARK    3  A    between atoms: _3  and  _6
REMARK    4  A    between atoms: _6  and  _7
REMARK    5  A    between atoms: _12  and  _14
REMARK    6  A    between atoms: _14  and  _15
REMARK    7  A    between atoms: _14  and  _17
REMARK    8  A    between atoms: _17  and  _18
REMARK    9  A    between atoms: _28  and  _30
REMARK   10  A    between atoms: _30  and  _31
REMARK   11  A    between atoms: _30  and  _33
REMARK   12  A    between atoms: _33  and  _34
REMARK   13  A    between atoms: _37  and  _39
REMARK   14  A    between atoms: _39  and  _40
REMARK   15  A    between atoms: _39  and  _42
REMARK   16  A    between atoms: _42  and  _43
REMARK   17  A    between atoms: _46  and  _48
REMARK   18  A    between atoms: _48  and  _49
REMARK   19  A    between atoms: _52  and  _54
REMARK   20  A    between atoms: _54  and  _55
REMARK   21  A    between atoms: _54  and  _57
REMARK   22  A    between atoms: _57  and  _58
REMARK   23  A    between atoms: _61  and  _63
REMARK   24  A    between atoms: _63  and  _64
REMARK   25  A    between atoms: _63  and  _66
REMARK   26  A    between atoms: _66  and  _67
REMARK   27  A    between atoms: _67  and  _68
REMARK   28  A    between atoms: _68  and  _69
REMARK   29  A    between atoms: _69  and  _70
REMARK   30  A    between atoms: _74  and  _76
REMARK   31  A    between atoms: _76  and  _77
REMARK   32  A    between atoms: _76  and  _79
REMARK   33  A    between atoms: _79  and  _80
REMARK   34  A    between atoms: _80  and  _81
REMARK   35  A    between atoms: _83  and  _85
REMARK   36  A    between atoms: _85  and  _86
REMARK   37  A    between atoms: _85  and  _88
REMARK   38  A    between atoms: _88  and  _89
REMARK   39  A    between atoms: _91  and  _93
REMARK   40  A    between atoms: _93  and  _94
REMARK   41  A    between atoms: _93  and  _96
REMARK   42  A    between atoms: _96  and  _97
REMARK   43  A    between atoms: _99  and  _101
REMARK   44  A    between atoms: _101  and  _102
REMARK   45  A    between atoms: _101  and  _104
REMARK   46  A    between atoms: _104  and  _105
REMARK   47  A    between atoms: _105  and  _106
REMARK   48  A    between atoms: _111  and  _113
REMARK   49  A    between atoms: _113  and  _114
REMARK   50  A    between atoms: _116  and  _118
REMARK   51  A    between atoms: _118  and  _119
REMARK   52  A    between atoms: _118  and  _121
REMARK   53  A    between atoms: _121  and  _122
REMARK   54  A    between atoms: _122  and  _123
REMARK   55  A    between atoms: _125  and  _127
REMARK   56  A    between atoms: _127  and  _128
REMARK   57  A    between atoms: _127  and  _130
REMARK   58  A    between atoms: _130  and  _131
REMARK   59  A    between atoms: _131  and  _132
REMARK   60  A    between atoms: _135  and  _137
REMARK   61  A    between atoms: _137  and  _138
REMARK   62  A    between atoms: _137  and  _140
REMARK   63  A    between atoms: _140  and  _141
REMARK   64  A    between atoms: _144  and  _146
REMARK   65  A    between atoms: _146  and  _147
REMARK   66  A    between atoms: _149  and  _151
REMARK   67  A    between atoms: _151  and  _152
REMARK   68  A    between atoms: _151  and  _154
REMARK   69  A    between atoms: _156  and  _158
REMARK   70  A    between atoms: _158  and  _159
REMARK   71  A    between atoms: _158  and  _161
REMARK   72  A    between atoms: _161  and  _162
REMARK   73  A    between atoms: _167  and  _168
REMARK   74  A    between atoms: _170  and  _172
REMARK   75  A    between atoms: _172  and  _173
REMARK   76  A    between atoms: _172  and  _175
REMARK   77  A    between atoms: _175  and  _176
REMARK   78  A    between atoms: _178  and  _180
REMARK   79  A    between atoms: _180  and  _181
REMARK   80  A    between atoms: _183  and  _185
REMARK   81  A    between atoms: _185  and  _186
REMARK   82  A    between atoms: _185  and  _188
REMARK   83  A    between atoms: _188  and  _189
REMARK   84  A    between atoms: _194  and  _195
REMARK   85  A    between atoms: _197  and  _199
REMARK   86  A    between atoms: _199  and  _200
REMARK   87  A    between atoms: _199  and  _202
REMARK   88  A    between atoms: _202  and  _203
REMARK   89  A    between atoms: _205  and  _207
REMARK   90  A    between atoms: _207  and  _208
REMARK   91  A    between atoms: _211  and  _213
REMARK   92  A    between atoms: _213  and  _214
REMARK   93  A    between atoms: _213  and  _216
REMARK   94  A    between atoms: _216  and  _217
REMARK   95  A    between atoms: _220  and  _222
REMARK   96  A    between atoms: _222  and  _223
REMARK   97  A    between atoms: _226  and  _228
REMARK   98  A    between atoms: _228  and  _229
REMARK   99  A    between atoms: _228  and  _231
REMARK  100  A    between atoms: _231  and  _232
REMARK  101  A    between atoms: _242  and  _244
REMARK  102  A    between atoms: _244  and  _245
REMARK  103  A    between atoms: _244  and  _247
REMARK  104  A    between atoms: _247  and  _248
REMARK  105  A    between atoms: _251  and  _253
REMARK  106  A    between atoms: _253  and  _254
REMARK  107  A    between atoms: _253  and  _256
REMARK  108  A    between atoms: _256  and  _257
REMARK  109  A    between atoms: _260  and  _262
REMARK  110  A    between atoms: _262  and  _263
REMARK  111  A    between atoms: _262  and  _265
REMARK  112  A    between atoms: _265  and  _266
REMARK  113  A    between atoms: _266  and  _267
REMARK  114  A    between atoms: _270  and  _272
REMARK  115  A    between atoms: _272  and  _273
REMARK  116  A    between atoms: _272  and  _275
REMARK  117  A    between atoms: _275  and  _276
REMARK  118  A    between atoms: _281  and  _282
REMARK  119  A    between atoms: _284  and  _286
REMARK  120  A    between atoms: _286  and  _287
REMARK  121  A    between atoms: _286  and  _289
REMARK  122  A    between atoms: _289  and  _290
REMARK  123  A    between atoms: _293  and  _294
REMARK  124  A    between atoms: _299  and  _301
REMARK  125  A    between atoms: _301  and  _302
REMARK  126  A    between atoms: _301  and  _304
REMARK  127  A    between atoms: _304  and  _305
REMARK  128  A    between atoms: _305  and  _306
REMARK  129  A    between atoms: _306  and  _307
REMARK  130  A    between atoms: _307  and  _308
REMARK  131  A    between atoms: _312  and  _314
REMARK  132  A    between atoms: _314  and  _315
REMARK  133  A    between atoms: _314  and  _317
REMARK  134  A    between atoms: _317  and  _318
REMARK  135  A    between atoms: _318  and  _319
REMARK  136  A    between atoms: _321  and  _323
REMARK  137  A    between atoms: _323  and  _324
REMARK  138  A    between atoms: _323  and  _326
REMARK  139  A    between atoms: _326  and  _327
REMARK  140  A    between atoms: _330  and  _332
REMARK  141  A    between atoms: _332  and  _333
REMARK  142  A    between atoms: _332  and  _335
REMARK  143  A    between atoms: _335  and  _336
REMARK  144  A    between atoms: _338  and  _340
REMARK  145  A    between atoms: _340  and  _341
REMARK  146  A    between atoms: _340  and  _343
REMARK  147  A    between atoms: _343  and  _344
REMARK  148  A    between atoms: _347  and  _349
REMARK  149  A    between atoms: _349  and  _350
REMARK  150  A    between atoms: _349  and  _352
REMARK  151  A    between atoms: _352  and  _353
REMARK  152  A    between atoms: _353  and  _354
REMARK  153  A    between atoms: _357  and  _359
REMARK  154  A    between atoms: _359  and  _360
REMARK  155  A    between atoms: _363  and  _364
REMARK  156  A    between atoms: _369  and  _371
REMARK  157  A    between atoms: _371  and  _372
REMARK  158  A    between atoms: _375  and  _377
REMARK  159  A    between atoms: _377  and  _378
REMARK  160  A    between atoms: _377  and  _380
REMARK  161  A    between atoms: _380  and  _381
REMARK  162  A    between atoms: _381  and  _382
REMARK  163  A    between atoms: _385  and  _387
REMARK  164  A    between atoms: _387  and  _388
REMARK  165  A    between atoms: _387  and  _390
REMARK  166  A    between atoms: _390  and  _391
REMARK  167  A    between atoms: _396  and  _398
REMARK  168  A    between atoms: _398  and  _399
REMARK  169  A    between atoms: _398  and  _401
REMARK  170  A    between atoms: _401  and  _402
REMARK  171  A    between atoms: _405  and  _407
REMARK  172  A    between atoms: _407  and  _408
REMARK  173  A    between atoms: _407  and  _410
REMARK  174  A    between atoms: _410  and  _411
REMARK  175  A    between atoms: _414  and  _416
REMARK  176  A    between atoms: _416  and  _417
REMARK  177  A    between atoms: _416  and  _419
REMARK  178  A    between atoms: _419  and  _420
REMARK  179  A    between atoms: _426  and  _428
REMARK  180  A    between atoms: _428  and  _429
REMARK  181  A    between atoms: _428  and  _431
REMARK  182  A    between atoms: _434  and  _436
REMARK  183  A    between atoms: _436  and  _437
REMARK  184  A    between atoms: _436  and  _439
REMARK  185  A    between atoms: _439  and  _440
REMARK  186  A    between atoms: _443  and  _445
REMARK  187  A    between atoms: _445  and  _446
REMARK  188  A    between atoms: _449  and  _451
REMARK  189  A    between atoms: _451  and  _452
REMARK  190  A    between atoms: _451  and  _454
REMARK  191  A    between atoms: _454  and  _455
REMARK  192  A    between atoms: _460  and  _462
REMARK  193  A    between atoms: _462  and  _463
REMARK  194  A    between atoms: _462  and  _465
REMARK  195  A    between atoms: _465  and  _466
REMARK  196  A    between atoms: _466  and  _467
REMARK  197  A    between atoms: _467  and  _468
REMARK  198  A    between atoms: _468  and  _469
REMARK  199  A    between atoms: _473  and  _475
REMARK  200  A    between atoms: _475  and  _476
REMARK  201  A    between atoms: _475  and  _478
REMARK  202  A    between atoms: _478  and  _479
REMARK  203  A    between atoms: _482  and  _484
REMARK  204  A    between atoms: _484  and  _485
REMARK  205  A    between atoms: _487  and  _489
REMARK  206  A    between atoms: _489  and  _490
REMARK  207  A    between atoms: _489  and  _492
REMARK  208  A    between atoms: _492  and  _493
REMARK  209  A    between atoms: _498  and  _499
REMARK  210  A    between atoms: _501  and  _503
REMARK  211  A    between atoms: _503  and  _504
REMARK  212  A    between atoms: _503  and  _506
REMARK  213  A    between atoms: _506  and  _507
REMARK  214  A    between atoms: _512  and  _513
REMARK  215  A    between atoms: _515  and  _517
REMARK  216  A    between atoms: _517  and  _518
REMARK  217  A    between atoms: _517  and  _520
REMARK  218  A    between atoms: _520  and  _521
REMARK  219  A    between atoms: _524  and  _526
REMARK  220  A    between atoms: _526  and  _527
REMARK  221  A    between atoms: _526  and  _529
REMARK  222  A    between atoms: _529  and  _530
REMARK  223  A    between atoms: _535  and  _537
REMARK  224  A    between atoms: _537  and  _538
REMARK  225  A    between atoms: _537  and  _540
REMARK  226  A    between atoms: _540  and  _541
REMARK  227  A    between atoms: _546  and  _547
REMARK                            x       y       z     vdW  Elec       q    Type
REMARK                         _______ _______ _______ _____ _____    ______ ____
ROOT
ATOM      1  CA  GLN A   1      29.753 265.627 153.421  0.00  0.00    +0.145 C 
ENDROOT
BRANCH   1   2
ATOM      2  C   GLN A   1      28.824 266.648 154.031  0.00  0.00    +0.238 C 
ATOM      3  O   GLN A   1      28.169 266.374 155.037  0.00  0.00    -0.274 OA
ATOM      4  N   GLY A   2      28.757 267.833 153.428  0.00  0.00    -0.297 N 
ATOM      5  H   GLY A   2      29.407 268.047 152.645  0.00  0.00    +0.150 HD
BRANCH   4   6
ATOM      6  CA  GLY A   2      27.788 268.833 153.848  0.00  0.00    +0.163 C 
BRANCH   6   7
ATOM      7  C   GLY A   2      26.349 268.342 153.755  0.00  0.00    +0.229 C 
ATOM      8  O   GLY A   2      25.543 268.499 154.685  0.00  0.00    -0.286 OA
ENDBRANCH   6   7
ENDBRANCH   4   6
ENDBRANCH   1   2
BRANCH   1   9
ATOM      9  N   GLN A   1      29.761 265.742 151.966  0.00  0.00    -0.238 NA
ATOM     10  H   GLN A   1      30.642 265.990 151.472  0.00  0.00    +0.142 HD
ENDBRANCH   1   9
BRANCH   1  11
ATOM     11  CB  GLN A   1      31.158 265.799 154.011  0.00  0.00    +0.036 C 
BRANCH  11  12
ATOM     12  CG  GLN A   1      32.081 264.632 153.793  0.00  0.00    +0.087 C 
BRANCH  12  13
ATOM     13  CD  GLN A   1      33.446 264.865 154.415  0.00  0.00    +0.219 C 
ATOM     14  NE2 GLN A   1      33.563 264.597 155.715  0.00  0.00    -0.329 N 
ATOM     15 HE21 GLN A   1      32.746 264.235 156.247  0.00  0.00    +0.145 HD
ATOM     16 HE22 GLN A   1      34.471 264.750 156.198  0.00  0.00    +0.145 HD
ATOM     17  OE1 GLN A   1      34.376 265.294 153.736  0.00  0.00    -0.275 OA
ENDBRANCH  12  13
ENDBRANCH  11  12
ENDBRANCH   1  11
TORSDOF 7
REMARK  Name = ../refined-set-2016/4ymh/4ymh_pocket.pdb
REMARK  227 active torsions:
REMARK  status: ('A' for Active; 'I' for Inactive)
REMARK    1  A    between atoms: _1  and  _3
REMARK    2  A    between atoms: _3  and  _4
REMARK    3  A    between atoms: _3  and  _6
REMARK    4  A    between atoms: _6  and  _7
REMARK    5  A    between atoms: _12  and  _14
REMARK    6  A    between atoms: _14  and  _15
REMARK    7  A    between atoms: _14  and  _17
REMARK    8  A    between atoms: _17  and  _18
REMARK    9  A    between atoms: _28  and  _30
REMARK   10  A    between atoms: _30  and  _31
REMARK   11  A    between atoms: _30  and  _33
REMARK   12  A    between atoms: _33  and  _34
REMARK   13  A    between atoms: _37  and  _39
REMARK   14  A    between atoms: _39  and  _40
REMARK   15  A    between atoms: _39  and  _42
REMARK   16  A    between atoms: _42  and  _43
REMARK   17  A    between atoms: _46  and  _48
REMARK   18  A    between atoms: _48  and  _49
REMARK   19  A    between atoms: _52  and  _54
REMARK   20  A    between atoms: _54  and  _55
REMARK   21  A    between atoms: _54  and  _57
REMARK   22  A    between atoms: _57  and  _58
REMARK   23  A    between atoms: _61  and  _63
REMARK   24  A    between atoms: _63  and  _64
REMARK   25  A    between atoms: _63  and  _66
REMARK   26  A    between atoms: _66  and  _67
REMARK   27  A    between atoms: _67  and  _68
REMARK   28  A    between atoms: _68  and  _69
REMARK   29  A    between atoms: _69  and  _70
REMARK   30  A    between atoms: _74  and  _76
REMARK   31  A    between atoms: _76  and  _77
REMARK   32  A    between atoms: _76  and  _79
REMARK   33  A    between atoms: _79  and  _80
REMARK   34  A    between atoms: _80  and  _81
REMARK   35  A    between atoms: _83  and  _85
REMARK   36  A    between atoms: _85  and  _86
REMARK   37  A    between atoms: _85  and  _88
REMARK   38  A    between atoms: _88  and  _89
REMARK   39  A    between atoms: _91  and  _93
REMARK   40  A    between atoms: _93  and  _94
REMARK   41  A    between atoms: _93  and  _96
REMARK   42  A    between atoms: _96  and  _97
REMARK   43  A    between atoms: _99  and  _101
REMARK   44  A    between atoms: _101  and  _102
REMARK   45  A    between atoms: _101  and  _104
REMARK   46  A    between atoms: _104  and  _105
REMARK   47  A    between atoms: _105  and  _106
REMARK   48  A    between atoms: _111  and  _113
REMARK   49  A    between atoms: _113  and  _114
REMARK   50  A    between atoms: _116  and  _118
REMARK   51  A    between atoms: _118  and  _119
REMARK   52  A    between atoms: _118  and  _121
REMARK   53  A    between atoms: _121  and  _122
REMARK   54  A    between atoms: _122  and  _123
REMARK   55  A    between atoms: _125  and  _127
REMARK   56  A    between atoms: _127  and  _128
REMARK   57  A    between atoms: _127  and  _130
REMARK   58  A    between atoms: _130  and  _131
REMARK   59  A    between atoms: _131  and  _132
REMARK   60  A    between atoms: _135  and  _137
REMARK   61  A    between atoms: _137  and  _138
REMARK   62  A    between atoms: _137  and  _140
REMARK   63  A    between atoms: _140  and  _141
REMARK   64  A    between atoms: _144  and  _146
REMARK   65  A    between atoms: _146  and  _147
REMARK   66  A    between atoms: _149  and  _151
REMARK   67  A    between atoms: _151  and  _152
REMARK   68  A    between atoms: _151  and  _154
REMARK   69  A    between atoms: _156  and  _158
REMARK   70  A    between atoms: _158  and  _159
REMARK   71  A    between atoms: _158  and  _161
REMARK   72  A    between atoms: _161  and  _162
REMARK   73  A    between atoms: _167  and  _168
REMARK   74  A    between atoms: _170  and  _172
REMARK   75  A    between atoms: _172  and  _173
REMARK   76  A    between atoms: _172  and  _175
REMARK   77  A    between atoms: _175  and  _176
REMARK   78  A    between atoms: _178  and  _180
REMARK   79  A    between atoms: _180  and  _181
REMARK   80  A    between atoms: _183  and  _185
REMARK   81  A    between atoms: _185  and  _186
REMARK   82  A    between atoms: _185  and  _188
REMARK   83  A    between atoms: _188  and  _189
REMARK   84  A    between atoms: _194  and  _195
REMARK   85  A    between atoms: _197  and  _199
REMARK   86  A    between atoms: _199  and  _200
REMARK   87  A    between atoms: _199  and  _202
REMARK   88  A    between atoms: _202  and  _203
REMARK   89  A    between atoms: _205  and  _207
REMARK   90  A    between atoms: _207  and  _208
REMARK   91  A    between atoms: _211  and  _213
REMARK   92  A    between atoms: _213  and  _214
REMARK   93  A    between atoms: _213  and  _216
REMARK   94  A    between atoms: _216  and  _217
REMARK   95  A    between atoms: _220  and  _222
REMARK   96  A    between atoms: _222  and  _223
REMARK   97  A    between atoms: _226  and  _228
REMARK   98  A    between atoms: _228  and  _229
REMARK   99  A    between atoms: _228  and  _231
REMARK  100  A    between atoms: _231  and  _232
REMARK  101  A    between atoms: _242  and  _244
REMARK  102  A    between atoms: _244  and  _245
REMARK  103  A    between atoms: _244  and  _247
REMARK  104  A    between atoms: _247  and  _248
REMARK  105  A    between atoms: _251  and  _253
REMARK  106  A    between atoms: _253  and  _254
REMARK  107  A    between atoms: _253  and  _256
REMARK  108  A    between atoms: _256  and  _257
REMARK  109  A    between atoms: _260  and  _262
REMARK  110  A    between atoms: _262  and  _263
REMARK  111  A    between atoms: _262  and  _265
REMARK  112  A    between atoms: _265  and  _266
REMARK  113  A    between atoms: _266  and  _267
REMARK  114  A    between atoms: _270  and  _272
REMARK  115  A    between atoms: _272  and  _273
REMARK  116  A    between atoms: _272  and  _275
REMARK  117  A    between atoms: _275  and  _276
REMARK  118  A    between atoms: _281  and  _282
REMARK  119  A    between atoms: _284  and  _286
REMARK  120  A    between atoms: _286  and  _287
REMARK  121  A    between atoms: _286  and  _289
REMARK  122  A    between atoms: _289  and  _290
REMARK  123  A    between atoms: _293  and  _294
REMARK  124  A    between atoms: _299  and  _301
REMARK  125  A    between atoms: _301  and  _302
REMARK  126  A    between atoms: _301  and  _304
REMARK  127  A    between atoms: _304  and  _305
REMARK  128  A    between atoms: _305  and  _306
REMARK  129  A    between atoms: _306  and  _307
REMARK  130  A    between atoms: _307  and  _308
REMARK  131  A    between atoms: _312  and  _314
REMARK  132  A    between atoms: _314  and  _315
REMARK  133  A    between atoms: _314  and  _317
REMARK  134  A    between atoms: _317  and  _318
REMARK  135  A    between atoms: _318  and  _319
REMARK  136  A    between atoms: _321  and  _323
REMARK  137  A    between atoms: _323  and  _324
REMARK  138  A    between atoms: _323  and  _326
REMARK  139  A    between atoms: _326  and  _327
REMARK  140  A    between atoms: _330  and  _332
REMARK  141  A    between atoms: _332  and  _333
REMARK  142  A    between atoms: _332  and  _335
REMARK  143  A    between atoms: _335  and  _336
REMARK  144  A    between atoms: _338  and  _340
REMARK  145  A    between atoms: _340  and  _341
REMARK  146  A    between atoms: _340  and  _343
REMARK  147  A    between atoms: _343  and  _344
REMARK  148  A    between atoms: _347  and  _349
REMARK  149  A    between atoms: _349  and  _350
REMARK  150  A    between atoms: _349  and  _352
REMARK  151  A    between atoms: _352  and  _353
REMARK  152  A    between atoms: _353  and  _354
REMARK  153  A    between atoms: _357  and  _359
REMARK  154  A    between atoms: _359  and  _360
REMARK  155  A    between atoms: _363  and  _364
REMARK  156  A    between atoms: _369  and  _371
REMARK  157  A    between atoms: _371  and  _372
REMARK  158  A    between atoms: _375  and  _377
REMARK  159  A    between atoms: _377  and  _378
REMARK  160  A    between atoms: _377  and  _380
REMARK  161  A    between atoms: _380  and  _381
REMARK  162  A    between atoms: _381  and  _382
REMARK  163  A    between atoms: _385  and  _387
REMARK  164  A    between atoms: _387  and  _388
REMARK  165  A    between atoms: _387  and  _390
REMARK  166  A    between atoms: _390  and  _391
REMARK  167  A    between atoms: _396  and  _398
REMARK  168  A    between atoms: _398  and  _399
REMARK  169  A    between atoms: _398  and  _401
REMARK  170  A    between atoms: _401  and  _402
REMARK  171  A    between atoms: _405  and  _407
REMARK  172  A    between atoms: _407  and  _408
REMARK  173  A    between atoms: _407  and  _410
REMARK  174  A    between atoms: _410  and  _411
REMARK  175  A    between atoms: _414  and  _416
REMARK  176  A    between atoms: _416  and  _417
REMARK  177  A    between atoms: _416  and  _419
REMARK  178  A    between atoms: _419  and  _420
REMARK  179  A    between atoms: _426  and  _428
REMARK  180  A    between atoms: _428  and  _429
REMARK  181  A    between atoms: _428  and  _431
REMARK  182  A    between atoms: _434  and  _436
REMARK  183  A    between atoms: _436  and  _437
REMARK  184  A    between atoms: _436  and  _439
REMARK  185  A    between atoms: _439  and  _440
REMARK  186  A    between atoms: _443  and  _445
REMARK  187  A    between atoms: _445  and  _446
REMARK  188  A    between atoms: _449  and  _451
REMARK  189  A    between atoms: _451  and  _452
REMARK  190  A    between atoms: _451  and  _454
REMARK  191  A    between atoms: _454  and  _455
REMARK  192  A    between atoms: _460  and  _462
REMARK  193  A    between atoms: _462  and  _463
REMARK  194  A    between atoms: _462  and  _465
REMARK  195  A    between atoms: _465  and  _466
REMARK  196  A    between atoms: _466  and  _467
REMARK  197  A    between atoms: _467  and  _468
REMARK  198  A    between atoms: _468  and  _469
REMARK  199  A    between atoms: _473  and  _475
REMARK  200  A    between atoms: _475  and  _476
REMARK  201  A    between atoms: _475  and  _478
REMARK  202  A    between atoms: _478  and  _479
REMARK  203  A    between atoms: _482  and  _484
REMARK  204  A    between atoms: _484  and  _485
REMARK  205  A    between atoms: _487  and  _489
REMARK  206  A    between atoms: _489  and  _490
REMARK  207  A    between atoms: _489  and  _492
REMARK  208  A    between atoms: _492  and  _493
REMARK  209  A    between atoms: _498  and  _499
REMARK  210  A    between atoms: _501  and  _503
REMARK  211  A    between atoms: _503  and  _504
REMARK  212  A    between atoms: _503  and  _506
REMARK  213  A    between atoms: _506  and  _507
REMARK  214  A    between atoms: _512  and  _513
REMARK  215  A    between atoms: _515  and  _517
REMARK  216  A    between atoms: _517  and  _518
REMARK  217  A    between atoms: _517  and  _520
REMARK  218  A    between atoms: _520  and  _521
REMARK  219  A    between atoms: _524  and  _526
REMARK  220  A    between atoms: _526  and  _527
REMARK  221  A    between atoms: _526  and  _529
REMARK  222  A    between atoms: _529  and  _530
REMARK  223  A    between atoms: _535  and  _537
REMARK  224  A    between atoms: _537  and  _538
REMARK  225  A    between atoms: _537  and  _540
REMARK  226  A    between atoms: _540  and  _541
REMARK  227  A    between atoms: _546  and  _547
REMARK                            x       y       z     vdW  Elec       q    Type
REMARK                         _______ _______ _______ _____ _____    ______ ____
ROOT
ATOM      1  CA  MET A   1      25.586 266.542 157.879  0.00  0.00    +0.134 C 
ENDROOT
BRANCH   1   2
ATOM      2  N   MET A   1      25.780 265.906 156.589  0.00  0.00    -0.239 NA
ATOM      3  H   MET A   1      26.479 266.295 155.924  0.00  0.00    +0.142 HD
ENDBRANCH   1   2
BRANCH   1   4
ATOM      4  C   MET A   1      24.175 267.097 157.996  0.00  0.00    +0.224 C 
ATOM      5  O   MET A   1      23.510 266.899 159.017  0.00  0.00    -0.287 OA
ENDBRANCH   1   4
BRANCH   1   6
ATOM      6  CB  MET A   1      26.632 267.656 158.091  0.00  0.00    +0.037 C 
BRANCH   6   7
ATOM      7  CG  MET A   1      28.055 267.126 158.177  0.00  0.00    +0.059 C 
BRANCH   7   8
ATOM      8  SD  MET A   1      29.255 268.459 158.368  0.00  0.00    -0.139 S 
ATOM      9  CE  MET A   1      29.266 269.174 156.769  0.00  0.00    +0.069 C 
ENDBRANCH   7   8
ENDBRANCH   6   7
ENDBRANCH   1   6
TORSDOF 5
REMARK  Name = ../refined-set-2016/4ymh/4ymh_pocket.pdb
REMARK  227 active torsions:
REMARK  status: ('A' for Active; 'I' for Inactive)
REMARK    1  A    between atoms: _1  and  _3
REMARK    2  A    between atoms: _3  and  _4
REMARK    3  A    between atoms: _3  and  _6
REMARK    4  A    between atoms: _6  and  _7
REMARK    5  A    between atoms: _12  and  _14
REMARK    6  A    between atoms: _14  and  _15
REMARK    7  A    between atoms: _14  and  _17
REMARK    8  A    between atoms: _17  and  _18
REMARK    9  A    between atoms: _28  and  _30
REMARK   10  A    between atoms: _30  and  _31
REMARK   11  A    between atoms: _30  and  _33
REMARK   12  A    between atoms: _33  and  _34
REMARK   13  A    between atoms: _37  and  _39
REMARK   14  A    between atoms: _39  and  _40
REMARK   15  A    between atoms: _39  and  _42
REMARK   16  A    between atoms: _42  and  _43
REMARK   17  A    between atoms: _46  and  _48
REMARK   18  A    between atoms: _48  and  _49
REMARK   19  A    between atoms: _52  and  _54
REMARK   20  A    between atoms: _54  and  _55
REMARK   21  A    between atoms: _54  and  _57
REMARK   22  A    between atoms: _57  and  _58
REMARK   23  A    between atoms: _61  and  _63
REMARK   24  A    between atoms: _63  and  _64
REMARK   25  A    between atoms: _63  and  _66
REMARK   26  A    between atoms: _66  and  _67
REMARK   27  A    between atoms: _67  and  _68
REMARK   28  A    between atoms: _68  and  _69
REMARK   29  A    between atoms: _69  and  _70
REMARK   30  A    between atoms: _74  and  _76
REMARK   31  A    between atoms: _76  and  _77
REMARK   32  A    between atoms: _76  and  _79
REMARK   33  A    between atoms: _79  and  _80
REMARK   34  A    between atoms: _80  and  _81
REMARK   35  A    between atoms: _83  and  _85
REMARK   36  A    between atoms: _85  and  _86
REMARK   37  A    between atoms: _85  and  _88
REMARK   38  A    between atoms: _88  and  _89
REMARK   39  A    between atoms: _91  and  _93
REMARK   40  A    between atoms: _93  and  _94
REMARK   41  A    between atoms: _93  and  _96
REMARK   42  A    between atoms: _96  and  _97
REMARK   43  A    between atoms: _99  and  _101
REMARK   44  A    between atoms: _101  and  _102
REMARK   45  A    between atoms: _101  and  _104
REMARK   46  A    between atoms: _104  and  _105
REMARK   47  A    between atoms: _105  and  _106
REMARK   48  A    between atoms: _111  and  _113
REMARK   49  A    between atoms: _113  and  _114
REMARK   50  A    between atoms: _116  and  _118
REMARK   51  A    between atoms: _118  and  _119
REMARK   52  A    between atoms: _118  and  _121
REMARK   53  A    between atoms: _121  and  _122
REMARK   54  A    between atoms: _122  and  _123
REMARK   55  A    between atoms: _125  and  _127
REMARK   56  A    between atoms: _127  and  _128
REMARK   57  A    between atoms: _127  and  _130
REMARK   58  A    between atoms: _130  and  _131
REMARK   59  A    between atoms: _131  and  _132
REMARK   60  A    between atoms: _135  and  _137
REMARK   61  A    between atoms: _137  and  _138
REMARK   62  A    between atoms: _137  and  _140
REMARK   63  A    between atoms: _140  and  _141
REMARK   64  A    between atoms: _144  and  _146
REMARK   65  A    between atoms: _146  and  _147
REMARK   66  A    between atoms: _149  and  _151
REMARK   67  A    between atoms: _151  and  _152
REMARK   68  A    between atoms: _151  and  _154
REMARK   69  A    between atoms: _156  and  _158
REMARK   70  A    between atoms: _158  and  _159
REMARK   71  A    between atoms: _158  and  _161
REMARK   72  A    between atoms: _161  and  _162
REMARK   73  A    between atoms: _167  and  _168
REMARK   74  A    between atoms: _170  and  _172
REMARK   75  A    between atoms: _172  and  _173
REMARK   76  A    between atoms: _172  and  _175
REMARK   77  A    between atoms: _175  and  _176
REMARK   78  A    between atoms: _178  and  _180
REMARK   79  A    between atoms: _180  and  _181
REMARK   80  A    between atoms: _183  and  _185
REMARK   81  A    between atoms: _185  and  _186
REMARK   82  A    between atoms: _185  and  _188
REMARK   83  A    between atoms: _188  and  _189
REMARK   84  A    between atoms: _194  and  _195
REMARK   85  A    between atoms: _197  and  _199
REMARK   86  A    between atoms: _199  and  _200
REMARK   87  A    between atoms: _199  and  _202
REMARK   88  A    between atoms: _202  and  _203
REMARK   89  A    between atoms: _205  and  _207
REMARK   90  A    between atoms: _207  and  _208
REMARK   91  A    between atoms: _211  and  _213
REMARK   92  A    between atoms: _213  and  _214
REMARK   93  A    between atoms: _213  and  _216
REMARK   94  A    between atoms: _216  and  _217
REMARK   95  A    between atoms: _220  and  _222
REMARK   96  A    between atoms: _222  and  _223
REMARK   97  A    between atoms: _226  and  _228
REMARK   98  A    between atoms: _228  and  _229
REMARK   99  A    between atoms: _228  and  _231
REMARK  100  A    between atoms: _231  and  _232
REMARK  101  A    between atoms: _242  and  _244
REMARK  102  A    between atoms: _244  and  _245
REMARK  103  A    between atoms: _244  and  _247
REMARK  104  A    between atoms: _247  and  _248
REMARK  105  A    between atoms: _251  and  _253
REMARK  106  A    between atoms: _253  and  _254
REMARK  107  A    between atoms: _253  and  _256
REMARK  108  A    between atoms: _256  and  _257
REMARK  109  A    between atoms: _260  and  _262
REMARK  110  A    between atoms: _262  and  _263
REMARK  111  A    between atoms: _262  and  _265
REMARK  112  A    between atoms: _265  and  _266
REMARK  113  A    between atoms: _266  and  _267
REMARK  114  A    between atoms: _270  and  _272
REMARK  115  A    between atoms: _272  and  _273
REMARK  116  A    between atoms: _272  and  _275
REMARK  117  A    between atoms: _275  and  _276
REMARK  118  A    between atoms: _281  and  _282
REMARK  119  A    between atoms: _284  and  _286
REMARK  120  A    between atoms: _286  and  _287
REMARK  121  A    between atoms: _286  and  _289
REMARK  122  A    between atoms: _289  and  _290
REMARK  123  A    between atoms: _293  and  _294
REMARK  124  A    between atoms: _299  and  _301
REMARK  125  A    between atoms: _301  and  _302
REMARK  126  A    between atoms: _301  and  _304
REMARK  127  A    between atoms: _304  and  _305
REMARK  128  A    between atoms: _305  and  _306
REMARK  129  A    between atoms: _306  and  _307
REMARK  130  A    between atoms: _307  and  _308
REMARK  131  A    between atoms: _312  and  _314
REMARK  132  A    between atoms: _314  and  _315
REMARK  133  A    between atoms: _314  and  _317
REMARK  134  A    between atoms: _317  and  _318
REMARK  135  A    between atoms: _318  and  _319
REMARK  136  A    between atoms: _321  and  _323
REMARK  137  A    between atoms: _323  and  _324
REMARK  138  A    between atoms: _323  and  _326
REMARK  139  A    between atoms: _326  and  _327
REMARK  140  A    between atoms: _330  and  _332
REMARK  141  A    between atoms: _332  and  _333
REMARK  142  A    between atoms: _332  and  _335
REMARK  143  A    between atoms: _335  and  _336
REMARK  144  A    between atoms: _338  and  _340
REMARK  145  A    between atoms: _340  and  _341
REMARK  146  A    between atoms: _340  and  _343
REMARK  147  A    between atoms: _343  and  _344
REMARK  148  A    between atoms: _347  and  _349
REMARK  149  A    between atoms: _349  and  _350
REMARK  150  A    between atoms: _349  and  _352
REMARK  151  A    between atoms: _352  and  _353
REMARK  152  A    between atoms: _353  and  _354
REMARK  153  A    between atoms: _357  and  _359
REMARK  154  A    between atoms: _359  and  _360
REMARK  155  A    between atoms: _363  and  _364
REMARK  156  A    between atoms: _369  and  _371
REMARK  157  A    between atoms: _371  and  _372
REMARK  158  A    between atoms: _375  and  _377
REMARK  159  A    between atoms: _377  and  _378
REMARK  160  A    between atoms: _377  and  _380
REMARK  161  A    between atoms: _380  and  _381
REMARK  162  A    between atoms: _381  and  _382
REMARK  163  A    between atoms: _385  and  _387
REMARK  164  A    between atoms: _387  and  _388
REMARK  165  A    between atoms: _387  and  _390
REMARK  166  A    between atoms: _390  and  _391
REMARK  167  A    between atoms: _396  and  _398
REMARK  168  A    between atoms: _398  and  _399
REMARK  169  A    between atoms: _398  and  _401
REMARK  170  A    between atoms: _401  and  _402
REMARK  171  A    between atoms: _405  and  _407
REMARK  172  A    between atoms: _407  and  _408
REMARK  173  A    between atoms: _407  and  _410
REMARK  174  A    between atoms: _410  and  _411
REMARK  175  A    between atoms: _414  and  _416
REMARK  176  A    between atoms: _416  and  _417
REMARK  177  A    between atoms: _416  and  _419
REMARK  178  A    between atoms: _419  and  _420
REMARK  179  A    between atoms: _426  and  _428
REMARK  180  A    between atoms: _428  and  _429
REMARK  181  A    between atoms: _428  and  _431
REMARK  182  A    between atoms: _434  and  _436
REMARK  183  A    between atoms: _436  and  _437
REMARK  184  A    between atoms: _436  and  _439
REMARK  185  A    between atoms: _439  and  _440
REMARK  186  A    between atoms: _443  and  _445
REMARK  187  A    between atoms: _445  and  _446
REMARK  188  A    between atoms: _449  and  _451
REMARK  189  A    between atoms: _451  and  _452
REMARK  190  A    between atoms: _451  and  _454
REMARK  191  A    between atoms: _454  and  _455
REMARK  192  A    between atoms: _460  and  _462
REMARK  193  A    between atoms: _462  and  _463
REMARK  194  A    between atoms: _462  and  _465
REMARK  195  A    between atoms: _465  and  _466
REMARK  196  A    between atoms: _466  and  _467
REMARK  197  A    between atoms: _467  and  _468
REMARK  198  A    between atoms: _468  and  _469
REMARK  199  A    between atoms: _473  and  _475
REMARK  200  A    between atoms: _475  and  _476
REMARK  201  A    between atoms: _475  and  _478
REMARK  202  A    between atoms: _478  and  _479
REMARK  203  A    between atoms: _482  and  _484
REMARK  204  A    between atoms: _484  and  _485
REMARK  205  A    between atoms: _487  and  _489
REMARK  206  A    between atoms: _489  and  _490
REMARK  207  A    between atoms: _489  and  _492
REMARK  208  A    between atoms: _492  and  _493
REMARK  209  A    between atoms: _498  and  _499
REMARK  210  A    between atoms: _501  and  _503
REMARK  211  A    between atoms: _503  and  _504
REMARK  212  A    between atoms: _503  and  _506
REMARK  213  A    between atoms: _506  and  _507
REMARK  214  A    between atoms: _512  and  _513
REMARK  215  A    between atoms: _515  and  _517
REMARK  216  A    between atoms: _517  and  _518
REMARK  217  A    between atoms: _517  and  _520
REMARK  218  A    between atoms: _520  and  _521
REMARK  219  A    between atoms: _524  and  _526
REMARK  220  A    between atoms: _526  and  _527
REMARK  221  A    between atoms: _526  and  _529
REMARK  222  A    between atoms: _529  and  _530
REMARK  223  A    between atoms: _535  and  _537
REMARK  224  A    between atoms: _537  and  _538
REMARK  225  A    between atoms: _537  and  _540
REMARK  226  A    between atoms: _540  and  _541
REMARK  227  A    between atoms: _546  and  _547
REMARK                            x       y       z     vdW  Elec       q    Type
REMARK                         _______ _______ _______ _____ _____    ______ ____
ROOT
ATOM      1  C   GLY A   7      31.724 276.600 159.118  0.00  0.00    +0.243 C 
ATOM      2  O   GLY A   7      30.509 276.590 159.314  0.00  0.00    -0.273 OA
ATOM      3  N   TYR A   8      32.287 275.937 158.114  0.00  0.00    -0.297 N 
ATOM      4  H   TYR A   8      33.321 275.960 158.008  0.00  0.00    +0.150 HD
ENDROOT
BRANCH   1   5
ATOM      5  CA  GLY A   7      32.644 277.402 160.034  0.00  0.00    +0.176 C 
BRANCH   5   7
ATOM      6  C   SER A   6      34.598 278.376 158.964  0.00  0.00    +0.243 C 
ATOM      7  N   GLY A   7      34.054 277.401 159.682  0.00  0.00    -0.295 N 
ATOM      8  H   GLY A   7      34.654 276.614 160.002  0.00  0.00    +0.150 HD
ATOM      9  O   SER A   6      33.942 279.323 158.529  0.00  0.00    -0.273 OA
BRANCH   6  10
ATOM     10  CA  SER A   6      36.111 278.294 158.708  0.00  0.00    +0.178 C 
BRANCH  10  13
ATOM     11  C   TYR A   5      37.356 277.125 160.438  0.00  0.00    +0.241 C 
ATOM     12  O   TYR A   5      37.381 278.141 161.131  0.00  0.00    -0.273 OA
ATOM     13  N   SER A   6      36.737 277.080 159.257  0.00  0.00    -0.295 N 
ATOM     14  H   SER A   6      36.697 276.188 158.724  0.00  0.00    +0.150 HD
BRANCH  11  15
ATOM     15  CA  TYR A   5      38.039 275.854 160.940  0.00  0.00    +0.153 C 
BRANCH  15  17
ATOM     16  C   CYS A   4      36.029 275.149 162.212  0.00  0.00    +0.242 C 
ATOM     17  N   TYR A   5      37.353 275.325 162.131  0.00  0.00    -0.297 N 
ATOM     18  H   TYR A   5      37.932 275.073 162.958  0.00  0.00    +0.150 HD
ATOM     19  O   CYS A   4      35.271 275.195 161.238  0.00  0.00    -0.273 OA
BRANCH  16  20
ATOM     20  CA  CYS A   4      35.471 274.830 163.603  0.00  0.00    +0.160 C 
BRANCH  20  22
ATOM     21  C   GLY A   3      36.369 272.682 164.325  0.00  0.00    +0.243 C 
ATOM     22  N   CYS A   4      36.385 274.011 164.404  0.00  0.00    -0.296 N 
ATOM     23  H   CYS A   4      37.058 274.476 165.046  0.00  0.00    +0.150 HD
ATOM     24  O   GLY A   3      35.685 272.080 163.502  0.00  0.00    -0.273 OA
BRANCH  21  25
ATOM     25  CA  GLY A   3      37.253 271.930 165.307  0.00  0.00    +0.176 C 
BRANCH  25  27
ATOM     26  C   ILE A   2      36.030 270.347 166.725  0.00  0.00    +0.241 C 
ATOM     27  N   GLY A   3      36.501 271.579 166.502  0.00  0.00    -0.295 N 
ATOM     28  H   GLY A   3      36.322 272.317 167.213  0.00  0.00    +0.150 HD
ATOM     29  O   ILE A   2      36.197 269.401 165.948  0.00  0.00    -0.273 OA
BRANCH  26  30
ATOM     30  CA  ILE A   2      35.207 270.161 167.995  0.00  0.00    +0.148 C 
BRANCH  30  33
ATOM     31  C   GLU A   1      32.874 270.751 167.795  0.00  0.00    +0.238 C 
ATOM     32  O   GLU A   1      33.068 271.802 168.399  0.00  0.00    -0.274 OA
ATOM     33  N   ILE A   2      33.845 269.875 167.576  0.00  0.00    -0.297 N 
ATOM     34  H   ILE A   2      33.630 268.975 167.100  0.00  0.00    +0.150 HD
BRANCH  31  35
ATOM     35  CA  GLU A   1      31.479 270.379 167.296  0.00  0.00    +0.145 C 
BRANCH  35  36
ATOM     36  N   GLU A   1      30.502 270.610 168.345  0.00  0.00    -0.238 NA
ATOM     37  H   GLU A   1      30.520 271.514 168.859  0.00  0.00    +0.142 HD
ENDBRANCH  35  36
BRANCH  35  38
ATOM     38  CB  GLU A   1      31.094 271.190 166.061  0.00  0.00    +0.038 C 
BRANCH  38  39
ATOM     39  CG  GLU A   1      32.226 271.564 165.159  0.00  0.00    +0.116 C 
BRANCH  39  40
ATOM     40  CD  GLU A   1      31.744 272.251 163.906  0.00  0.00    +0.365 C 
ATOM     41  OE2 GLU A   1      32.069 273.447 163.712  0.00  0.00    -0.246 OA
ATOM     42  OE1 GLU A   1      31.044 271.587 163.115  0.00  0.00    -0.246 OA
ENDBRANCH  39  40
ENDBRANCH  38  39
ENDBRANCH  35  38
ENDBRANCH  31  35
ENDBRANCH  30  33
BRANCH  30  43
ATOM     43  CB  ILE A   2      35.786 269.043 168.884  0.00  0.00    +0.027 C 
ATOM     44  CG2 ILE A   2      37.132 269.464 169.458  0.00  0.00    +0.002 C 
BRANCH  43  45
ATOM     45  CG1 ILE A   2      34.809 268.696 170.014  0.00  0.00    +0.002 C 
ATOM     46  CD1 ILE A   2      35.313 267.607 170.971  0.00  0.00    +0.000 C 
ENDBRANCH  43  45
ENDBRANCH  30  43
ENDBRANCH  26  30
ENDBRANCH  25  27
ENDBRANCH  21  25
ENDBRANCH  20  22
BRANCH  20  47
ATOM     47  CB  CYS A   4      35.151 276.131 164.346  0.00  0.00    +0.098 C 
ATOM     48  SG  CYS A   4      33.886 277.154 163.559  0.00  0.00    -0.080 S 
ENDBRANCH  20  47
ENDBRANCH  16  20
ENDBRANCH  15  17
BRANCH  15  49
ATOM     49  CB  TYR A   5      38.110 274.808 159.827  0.00  0.00    +0.055 C 
BRANCH  49  50
ATOM     50  CG  TYR A   5      39.065 275.184 158.717  0.00  0.00    -0.020 A 
ATOM     51  CD2 TYR A   5      40.404 275.448 158.991  0.00  0.00    -0.001 A 
ATOM     52  CE2 TYR A   5      41.293 275.796 157.983  0.00  0.00    +0.036 A 
ATOM     53  CZ  TYR A   5      40.844 275.883 156.680  0.00  0.00    +0.134 A 
ATOM     54  CE1 TYR A   5      39.521 275.633 156.376  0.00  0.00    +0.036 A 
ATOM     55  CD1 TYR A   5      38.634 275.277 157.395  0.00  0.00    -0.001 A 
BRANCH  53  56
ATOM     56  OH  TYR A   5      41.724 276.227 155.681  0.00  0.00    -0.506 OA
ATOM     57  HH  TYR A   5      42.623 276.370 156.070  0.00  0.00    +0.292 HD
ENDBRANCH  53  56
ENDBRANCH  49  50
ENDBRANCH  15  49
ENDBRANCH  11  15
ENDBRANCH  10  13
BRANCH  10  58
ATOM     58  CB  SER A   6      36.374 278.406 157.206  0.00  0.00    +0.166 C 
BRANCH  58  59
ATOM     59  OG  SER A   6      35.438 277.639 156.461  0.00  0.00    -0.380 OA
ATOM     60  H   SER A   6      35.633 277.731 155.495  0.00  0.00    +0.211 HD
ENDBRANCH  58  59
ENDBRANCH  10  58
ENDBRANCH   6  10
ENDBRANCH   5   7
ENDBRANCH   1   5
BRANCH   3  61
ATOM     61  CA  TYR A   8      31.485 275.172 157.149  0.00  0.00    +0.153 C 
BRANCH  61  62
ATOM     62  C   TYR A   8      30.595 274.112 157.794  0.00  0.00    +0.241 C 
ATOM     63  N   SER A   9      31.166 273.279 158.664  0.00  0.00    -0.295 N 
ATOM     64  H   SER A   9      32.171 273.382 158.912  0.00  0.00    +0.150 HD
ATOM     65  O   TYR A   8      29.390 274.046 157.503  0.00  0.00    -0.273 OA
BRANCH  63  66
ATOM     66  CA  SER A   9      30.357 272.217 159.265  0.00  0.00    +0.178 C 
BRANCH  66  67
ATOM     67  C   SER A   9      29.389 272.801 160.299  0.00  0.00    +0.243 C 
ATOM     68  N   ALA A  10      29.795 273.847 161.021  0.00  0.00    -0.297 N 
ATOM     69  H   ALA A  10      30.780 274.174 160.953  0.00  0.00    +0.150 HD
ATOM     70  O   SER A   9      28.264 272.329 160.411  0.00  0.00    -0.273 OA
BRANCH  68  71
ATOM     71  CA  ALA A  10      28.853 274.536 161.911  0.00  0.00    +0.149 C 
ATOM     72  CB  ALA A  10      29.552 275.678 162.667  0.00  0.00    +0.031 C 
BRANCH  71  73
ATOM     73  C   ALA A  10      27.642 275.079 161.142  0.00  0.00    +0.241 C 
ATOM     74  O   ALA A  10      26.506 274.977 161.614  0.00  0.00    -0.273 OA
ATOM     75  N   LEU A  11      27.876 275.655 159.963  0.00  0.00    -0.297 N 
ATOM     76  H   LEU A  11      28.850 275.726 159.605  0.00  0.00    +0.150 HD
BRANCH  75  77
ATOM     77  CA  LEU A  11      26.771 276.185 159.175  0.00  0.00    +0.149 C 
BRANCH  77  78
ATOM     78  C   LEU A  11      25.922 275.054 158.583  0.00  0.00    +0.241 C 
ATOM     79  O   LEU A  11      24.706 275.221 158.400  0.00  0.00    -0.273 OA
ATOM     80  N   ALA A  12      26.548 273.912 158.291  0.00  0.00    -0.297 N 
ATOM     81  H   ALA A  12      27.584 273.852 158.357  0.00  0.00    +0.150 HD
BRANCH  80  82
ATOM     82  CA  ALA A  12      25.766 272.743 157.876  0.00  0.00    +0.149 C 
ATOM     83  CB  ALA A  12      26.677 271.580 157.474  0.00  0.00    +0.031 C 
BRANCH  82  84
ATOM     84  C   ALA A  12      24.808 272.303 158.988  0.00  0.00    +0.241 C 
ATOM     85  N   TRP A  13      25.326 272.164 160.209  0.00  0.00    -0.298 N 
ATOM     86  H   TRP A  13      26.345 272.311 160.353  0.00  0.00    +0.150 HD
ATOM     87  O   ALA A  12      23.616 272.095 158.740  0.00  0.00    -0.273 OA
BRANCH  85  88
ATOM     88  CA  TRP A  13      24.479 271.806 161.354  0.00  0.00    +0.141 C 
BRANCH  88  89
ATOM     89  C   TRP A  13      23.358 272.824 161.559  0.00  0.00    +0.227 C 
ATOM     90  O   TRP A  13      22.194 272.473 161.836  0.00  0.00    -0.286 OA
ENDBRANCH  88  89
BRANCH  88  91
ATOM     91  CB  TRP A  13      25.317 271.701 162.643  0.00  0.00    +0.056 C 
BRANCH  91  92
ATOM     92  CG  TRP A  13      26.442 270.691 162.602  0.00  0.00    -0.002 A 
ATOM     93  CD1 TRP A  13      27.755 270.918 162.913  0.00  0.00    +0.068 A 
ATOM     94  NE1 TRP A  13      28.485 269.766 162.758  0.00  0.00    -0.352 N 
ATOM     95  HE1 TRP A  13      29.507 269.670 162.927  0.00  0.00    +0.166 HD
ATOM     96  CE2 TRP A  13      27.649 268.763 162.345  0.00  0.00    +0.056 A 
ATOM     97  CZ2 TRP A  13      27.924 267.422 162.059  0.00  0.00    +0.017 A 
ATOM     98  CH2 TRP A  13      26.880 266.634 161.666  0.00  0.00    +0.001 A 
ATOM     99  CZ3 TRP A  13      25.576 267.151 161.547  0.00  0.00    +0.000 A 
ATOM    100  CE3 TRP A  13      25.302 268.473 161.832  0.00  0.00    +0.001 A 
ATOM    101  CD2 TRP A  13      26.353 269.307 162.239  0.00  0.00    +0.013 A 
ENDBRANCH  91  92
ENDBRANCH  88  91
ENDBRANCH  85  88
ENDBRANCH  82  84
ENDBRANCH  80  82
ENDBRANCH  77  78
BRANCH  77 102
ATOM    102  CB  LEU A  11      27.282 277.114 158.068  0.00  0.00    +0.029 C 
BRANCH 102 103
ATOM    103  CG  LEU A  11      27.871 278.438 158.588  0.00  0.00    +0.002 C 
ATOM    104  CD2 LEU A  11      26.778 279.301 159.214  0.00  0.00    +0.000 C 
ATOM    105  CD1 LEU A  11      28.593 279.206 157.478  0.00  0.00    +0.000 C 
ENDBRANCH 102 103
ENDBRANCH  77 102
ENDBRANCH  75  77
ENDBRANCH  71  73
ENDBRANCH  68  71
ENDBRANCH  66  67
BRANCH  66 106
ATOM    106  CB  SER A   9      31.224 271.100 159.877  0.00  0.00    +0.166 C 
BRANCH 106 107
ATOM    107  OG  SER A   9      32.157 271.579 160.824  0.00  0.00    -0.380 OA
ATOM    108  H   SER A   9      31.674 272.025 161.565  0.00  0.00    +0.211 HD
ENDBRANCH 106 107
ENDBRANCH  66 106
ENDBRANCH  63  66
ENDBRANCH  61  62
BRANCH  61 109
ATOM    109  CB  TYR A   8      32.398 274.505 156.113  0.00  0.00    +0.055 C 
BRANCH 109 110
ATOM    110  CG  TYR A   8      31.686 273.585 155.135  0.00  0.00    -0.020 A 
ATOM    111  CD2 TYR A   8      31.900 272.206 155.160  0.00  0.00    -0.001 A 
ATOM    112  CE2 TYR A   8      31.254 271.360 154.261  0.00  0.00    +0.036 A 
ATOM    113  CZ  TYR A   8      30.391 271.896 153.324  0.00  0.00    +0.134 A 
ATOM    114  CE1 TYR A   8      30.169 273.259 153.280  0.00  0.00    +0.036 A 
ATOM    115  CD1 TYR A   8      30.814 274.096 154.177  0.00  0.00    -0.001 A 
BRANCH 113 116
ATOM    116  OH  TYR A   8      29.738 271.077 152.419  0.00  0.00    -0.506 OA
ATOM    117  HH  TYR A   8      30.406 270.592 151.873  0.00  0.00    +0.292 HD
ENDBRANCH 113 116
ENDBRANCH 109 110
ENDBRANCH  61 109
ENDBRANCH   3  61
TORSDOF 46
REMARK  Name = ../refined-set-2016/4ymh/4ymh_pocket.pdb
REMARK  227 active torsions:
REMARK  status: ('A' for Active; 'I' for Inactive)
REMARK    1  A    between atoms: _1  and  _3
REMARK    2  A    between atoms: _3  and  _4
REMARK    3  A    between atoms: _3  and  _6
REMARK    4  A    between atoms: _6  and  _7
REMARK    5  A    between atoms: _12  and  _14
REMARK    6  A    between atoms: _14  and  _15
REMARK    7  A    between atoms: _14  and  _17
REMARK    8  A    between atoms: _17  and  _18
REMARK    9  A    between atoms: _28  and  _30
REMARK   10  A    between atoms: _30  and  _31
REMARK   11  A    between atoms: _30  and  _33
REMARK   12  A    between atoms: _33  and  _34
REMARK   13  A    between atoms: _37  and  _39
REMARK   14  A    between atoms: _39  and  _40
REMARK   15  A    between atoms: _39  and  _42
REMARK   16  A    between atoms: _42  and  _43
REMARK   17  A    between atoms: _46  and  _48
REMARK   18  A    between atoms: _48  and  _49
REMARK   19  A    between atoms: _52  and  _54
REMARK   20  A    between atoms: _54  and  _55
REMARK   21  A    between atoms: _54  and  _57
REMARK   22  A    between atoms: _57  and  _58
REMARK   23  A    between atoms: _61  and  _63
REMARK   24  A    between atoms: _63  and  _64
REMARK   25  A    between atoms: _63  and  _66
REMARK   26  A    between atoms: _66  and  _67
REMARK   27  A    between atoms: _67  and  _68
REMARK   28  A    between atoms: _68  and  _69
REMARK   29  A    between atoms: _69  and  _70
REMARK   30  A    between atoms: _74  and  _76
REMARK   31  A    between atoms: _76  and  _77
REMARK   32  A    between atoms: _76  and  _79
REMARK   33  A    between atoms: _79  and  _80
REMARK   34  A    between atoms: _80  and  _81
REMARK   35  A    between atoms: _83  and  _85
REMARK   36  A    between atoms: _85  and  _86
REMARK   37  A    between atoms: _85  and  _88
REMARK   38  A    between atoms: _88  and  _89
REMARK   39  A    between atoms: _91  and  _93
REMARK   40  A    between atoms: _93  and  _94
REMARK   41  A    between atoms: _93  and  _96
REMARK   42  A    between atoms: _96  and  _97
REMARK   43  A    between atoms: _99  and  _101
REMARK   44  A    between atoms: _101  and  _102
REMARK   45  A    between atoms: _101  and  _104
REMARK   46  A    between atoms: _104  and  _105
REMARK   47  A    between atoms: _105  and  _106
REMARK   48  A    between atoms: _111  and  _113
REMARK   49  A    between atoms: _113  and  _114
REMARK   50  A    between atoms: _116  and  _118
REMARK   51  A    between atoms: _118  and  _119
REMARK   52  A    between atoms: _118  and  _121
REMARK   53  A    between atoms: _121  and  _122
REMARK   54  A    between atoms: _122  and  _123
REMARK   55  A    between atoms: _125  and  _127
REMARK   56  A    between atoms: _127  and  _128
REMARK   57  A    between atoms: _127  and  _130
REMARK   58  A    between atoms: _130  and  _131
REMARK   59  A    between atoms: _131  and  _132
REMARK   60  A    between atoms: _135  and  _137
REMARK   61  A    between atoms: _137  and  _138
REMARK   62  A    between atoms: _137  and  _140
REMARK   63  A    between atoms: _140  and  _141
REMARK   64  A    between atoms: _144  and  _146
REMARK   65  A    between atoms: _146  and  _147
REMARK   66  A    between atoms: _149  and  _151
REMARK   67  A    between atoms: _151  and  _152
REMARK   68  A    between atoms: _151  and  _154
REMARK   69  A    between atoms: _156  and  _158
REMARK   70  A    between atoms: _158  and  _159
REMARK   71  A    between atoms: _158  and  _161
REMARK   72  A    between atoms: _161  and  _162
REMARK   73  A    between atoms: _167  and  _168
REMARK   74  A    between atoms: _170  and  _172
REMARK   75  A    between atoms: _172  and  _173
REMARK   76  A    between atoms: _172  and  _175
REMARK   77  A    between atoms: _175  and  _176
REMARK   78  A    between atoms: _178  and  _180
REMARK   79  A    between atoms: _180  and  _181
REMARK   80  A    between atoms: _183  and  _185
REMARK   81  A    between atoms: _185  and  _186
REMARK   82  A    between atoms: _185  and  _188
REMARK   83  A    between atoms: _188  and  _189
REMARK   84  A    between atoms: _194  and  _195
REMARK   85  A    between atoms: _197  and  _199
REMARK   86  A    between atoms: _199  and  _200
REMARK   87  A    between atoms: _199  and  _202
REMARK   88  A    between atoms: _202  and  _203
REMARK   89  A    between atoms: _205  and  _207
REMARK   90  A    between atoms: _207  and  _208
REMARK   91  A    between atoms: _211  and  _213
REMARK   92  A    between atoms: _213  and  _214
REMARK   93  A    between atoms: _213  and  _216
REMARK   94  A    between atoms: _216  and  _217
REMARK   95  A    between atoms: _220  and  _222
REMARK   96  A    between atoms: _222  and  _223
REMARK   97  A    between atoms: _226  and  _228
REMARK   98  A    between atoms: _228  and  _229
REMARK   99  A    between atoms: _228  and  _231
REMARK  100  A    between atoms: _231  and  _232
REMARK  101  A    between atoms: _242  and  _244
REMARK  102  A    between atoms: _244  and  _245
REMARK  103  A    between atoms: _244  and  _247
REMARK  104  A    between atoms: _247  and  _248
REMARK  105  A    between atoms: _251  and  _253
REMARK  106  A    between atoms: _253  and  _254
REMARK  107  A    between atoms: _253  and  _256
REMARK  108  A    between atoms: _256  and  _257
REMARK  109  A    between atoms: _260  and  _262
REMARK  110  A    between atoms: _262  and  _263
REMARK  111  A    between atoms: _262  and  _265
REMARK  112  A    between atoms: _265  and  _266
REMARK  113  A    between atoms: _266  and  _267
REMARK  114  A    between atoms: _270  and  _272
REMARK  115  A    between atoms: _272  and  _273
REMARK  116  A    between atoms: _272  and  _275
REMARK  117  A    between atoms: _275  and  _276
REMARK  118  A    between atoms: _281  and  _282
REMARK  119  A    between atoms: _284  and  _286
REMARK  120  A    between atoms: _286  and  _287
REMARK  121  A    between atoms: _286  and  _289
REMARK  122  A    between atoms: _289  and  _290
REMARK  123  A    between atoms: _293  and  _294
REMARK  124  A    between atoms: _299  and  _301
REMARK  125  A    between atoms: _301  and  _302
REMARK  126  A    between atoms: _301  and  _304
REMARK  127  A    between atoms: _304  and  _305
REMARK  128  A    between atoms: _305  and  _306
REMARK  129  A    between atoms: _306  and  _307
REMARK  130  A    between atoms: _307  and  _308
REMARK  131  A    between atoms: _312  and  _314
REMARK  132  A    between atoms: _314  and  _315
REMARK  133  A    between atoms: _314  and  _317
REMARK  134  A    between atoms: _317  and  _318
REMARK  135  A    between atoms: _318  and  _319
REMARK  136  A    between atoms: _321  and  _323
REMARK  137  A    between atoms: _323  and  _324
REMARK  138  A    between atoms: _323  and  _326
REMARK  139  A    between atoms: _326  and  _327
REMARK  140  A    between atoms: _330  and  _332
REMARK  141  A    between atoms: _332  and  _333
REMARK  142  A    between atoms: _332  and  _335
REMARK  143  A    between atoms: _335  and  _336
REMARK  144  A    between atoms: _338  and  _340
REMARK  145  A    between atoms: _340  and  _341
REMARK  146  A    between atoms: _340  and  _343
REMARK  147  A    between atoms: _343  and  _344
REMARK  148  A    between atoms: _347  and  _349
REMARK  149  A    between atoms: _349  and  _350
REMARK  150  A    between atoms: _349  and  _352
REMARK  151  A    between atoms: _352  and  _353
REMARK  152  A    between atoms: _353  and  _354
REMARK  153  A    between atoms: _357  and  _359
REMARK  154  A    between atoms: _359  and  _360
REMARK  155  A    between atoms: _363  and  _364
REMARK  156  A    between atoms: _369  and  _371
REMARK  157  A    between atoms: _371  and  _372
REMARK  158  A    between atoms: _375  and  _377
REMARK  159  A    between atoms: _377  and  _378
REMARK  160  A    between atoms: _377  and  _380
REMARK  161  A    between atoms: _380  and  _381
REMARK  162  A    between atoms: _381  and  _382
REMARK  163  A    between atoms: _385  and  _387
REMARK  164  A    between atoms: _387  and  _388
REMARK  165  A    between atoms: _387  and  _390
REMARK  166  A    between atoms: _390  and  _391
REMARK  167  A    between atoms: _396  and  _398
REMARK  168  A    between atoms: _398  and  _399
REMARK  169  A    between atoms: _398  and  _401
REMARK  170  A    between atoms: _401  and  _402
REMARK  171  A    between atoms: _405  and  _407
REMARK  172  A    between atoms: _407  and  _408
REMARK  173  A    between atoms: _407  and  _410
REMARK  174  A    between atoms: _410  and  _411
REMARK  175  A    between atoms: _414  and  _416
REMARK  176  A    between atoms: _416  and  _417
REMARK  177  A    between atoms: _416  and  _419
REMARK  178  A    between atoms: _419  and  _420
REMARK  179  A    between atoms: _426  and  _428
REMARK  180  A    between atoms: _428  and  _429
REMARK  181  A    between atoms: _428  and  _431
REMARK  182  A    between atoms: _434  and  _436
REMARK  183  A    between atoms: _436  and  _437
REMARK  184  A    between atoms: _436  and  _439
REMARK  185  A    between atoms: _439  and  _440
REMARK  186  A    between atoms: _443  and  _445
REMARK  187  A    between atoms: _445  and  _446
REMARK  188  A    between atoms: _449  and  _451
REMARK  189  A    between atoms: _451  and  _452
REMARK  190  A    between atoms: _451  and  _454
REMARK  191  A    between atoms: _454  and  _455
REMARK  192  A    between atoms: _460  and  _462
REMARK  193  A    between atoms: _462  and  _463
REMARK  194  A    between atoms: _462  and  _465
REMARK  195  A    between atoms: _465  and  _466
REMARK  196  A    between atoms: _466  and  _467
REMARK  197  A    between atoms: _467  and  _468
REMARK  198  A    between atoms: _468  and  _469
REMARK  199  A    between atoms: _473  and  _475
REMARK  200  A    between atoms: _475  and  _476
REMARK  201  A    between atoms: _475  and  _478
REMARK  202  A    between atoms: _478  and  _479
REMARK  203  A    between atoms: _482  and  _484
REMARK  204  A    between atoms: _484  and  _485
REMARK  205  A    between atoms: _487  and  _489
REMARK  206  A    between atoms: _489  and  _490
REMARK  207  A    between atoms: _489  and  _492
REMARK  208  A    between atoms: _492  and  _493
REMARK  209  A    between atoms: _498  and  _499
REMARK  210  A    between atoms: _501  and  _503
REMARK  211  A    between atoms: _503  and  _504
REMARK  212  A    between atoms: _503  and  _506
REMARK  213  A    between atoms: _506  and  _507
REMARK  214  A    between atoms: _512  and  _513
REMARK  215  A    between atoms: _515  and  _517
REMARK  216  A    between atoms: _517  and  _518
REMARK  217  A    between atoms: _517  and  _520
REMARK  218  A    between atoms: _520  and  _521
REMARK  219  A    between atoms: _524  and  _526
REMARK  220  A    between atoms: _526  and  _527
REMARK  221  A    between atoms: _526  and  _529
REMARK  222  A    between atoms: _529  and  _530
REMARK  223  A    between atoms: _535  and  _537
REMARK  224  A    between atoms: _537  and  _538
REMARK  225  A    between atoms: _537  and  _540
REMARK  226  A    between atoms: _540  and  _541
REMARK  227  A    between atoms: _546  and  _547
REMARK                            x       y       z     vdW  Elec       q    Type
REMARK                         _______ _______ _______ _____ _____    ______ ____
ROOT
ATOM      1  C   TYR A   4      42.618 278.315 168.037  0.00  0.00    +0.241 C 
ATOM      2  O   TYR A   4      43.344 279.101 168.539  0.00  0.00    -0.273 OA
ATOM      3  N   SER A   5      42.484 278.230 166.747  0.00  0.00    -0.295 N 
ATOM      4  H   SER A   5      41.807 277.559 166.332  0.00  0.00    +0.150 HD
ENDROOT
BRANCH   1   5
ATOM      5  CA  TYR A   4      41.808 277.369 168.892  0.00  0.00    +0.153 C 
BRANCH   5   8
ATOM      6  C   GLU A   3      39.436 276.998 168.650  0.00  0.00    +0.241 C 
ATOM      7  O   GLU A   3      39.210 277.851 169.506  0.00  0.00    -0.273 OA
ATOM      8  N   TYR A   4      40.661 276.708 168.267  0.00  0.00    -0.297 N 
ATOM      9  H   TYR A   4      40.815 276.005 167.516  0.00  0.00    +0.150 HD
BRANCH   6  10
ATOM     10  CA  GLU A   3      38.273 276.301 167.955  0.00  0.00    +0.149 C 
BRANCH  10  12
ATOM     11  C   LEU A   2      36.382 274.975 168.676  0.00  0.00    +0.241 C 
ATOM     12  N   GLU A   3      37.176 276.026 168.888  0.00  0.00    -0.297 N 
ATOM     13  H   GLU A   3      37.018 276.645 169.708  0.00  0.00    +0.150 HD
ATOM     14  O   LEU A   2      36.561 274.184 167.750  0.00  0.00    -0.273 OA
BRANCH  11  15
ATOM     15  CA  LEU A   2      35.236 274.751 169.652  0.00  0.00    +0.149 C 
BRANCH  15  18
ATOM     16  C   THR A   1      32.997 275.327 168.866  0.00  0.00    +0.241 C 
ATOM     17  O   THR A   1      33.081 276.482 169.302  0.00  0.00    -0.274 OA
ATOM     18  N   LEU A   2      33.989 274.440 168.957  0.00  0.00    -0.297 N 
ATOM     19  H   LEU A   2      33.872 273.503 168.522  0.00  0.00    +0.150 HD
BRANCH  16  20
ATOM     20  CA  THR A   1      31.706 274.814 168.244  0.00  0.00    +0.172 C 
BRANCH  20  21
ATOM     21  CB  THR A   1      31.560 275.232 166.757  0.00  0.00    +0.135 C 
ATOM     22  CG2 THR A   1      31.356 276.737 166.609  0.00  0.00    +0.034 C 
BRANCH  21  23
ATOM     23  OG1 THR A   1      32.717 274.809 166.024  0.00  0.00    -0.383 OA
ATOM     24  HG1 THR A   1      32.622 275.077 165.076  0.00  0.00    +0.210 HD
ENDBRANCH  21  23
ENDBRANCH  20  21
BRANCH  20  25
ATOM     25  N   THR A   1      30.576 275.264 169.026  0.00  0.00    -0.236 NA
ATOM     26  H   THR A   1      30.475 276.264 169.292  0.00  0.00    +0.142 HD
ENDBRANCH  20  25
ENDBRANCH  16  20
ENDBRANCH  15  18
BRANCH  15  27
ATOM     27  CB  LEU A   2      35.613 273.623 170.616  0.00  0.00    +0.029 C 
BRANCH  27  28
ATOM     28  CG  LEU A   2      34.567 273.191 171.638  0.00  0.00    +0.002 C 
ATOM     29  CD2 LEU A   2      35.159 272.134 172.548  0.00  0.00    +0.000 C 
ATOM     30  CD1 LEU A   2      34.084 274.396 172.448  0.00  0.00    +0.000 C 
ENDBRANCH  27  28
ENDBRANCH  15  27
ENDBRANCH  11  15
ENDBRANCH  10  12
BRANCH  10  31
ATOM     31  CB  GLU A   3      37.764 277.155 166.781  0.00  0.00    +0.041 C 
BRANCH  31  32
ATOM     32  CG  GLU A   3      38.856 277.646 165.835  0.00  0.00    +0.116 C 
BRANCH  32  33
ATOM     33  CD  GLU A   3      39.602 276.514 165.130  0.00  0.00    +0.365 C 
ATOM     34  OE2 GLU A   3      40.859 276.532 165.129  0.00  0.00    -0.246 OA
ATOM     35  OE1 GLU A   3      38.940 275.609 164.568  0.00  0.00    -0.246 OA
ENDBRANCH  32  33
ENDBRANCH  31  32
ENDBRANCH  10  31
ENDBRANCH   6  10
ENDBRANCH   5   8
BRANCH   5  36
ATOM     36  CB  TYR A   4      42.728 276.365 169.579  0.00  0.00    +0.055 C 
BRANCH  36  37
ATOM     37  CG  TYR A   4      43.774 275.739 168.727  0.00  0.00    -0.020 A 
ATOM     38  CD2 TYR A   4      45.020 275.443 169.244  0.00  0.00    -0.001 A 
ATOM     39  CE2 TYR A   4      45.972 274.818 168.480  0.00  0.00    +0.036 A 
ATOM     40  CZ  TYR A   4      45.693 274.501 167.173  0.00  0.00    +0.134 A 
ATOM     41  CE1 TYR A   4      44.473 274.785 166.653  0.00  0.00    +0.036 A 
ATOM     42  CD1 TYR A   4      43.521 275.388 167.430  0.00  0.00    -0.001 A 
BRANCH  40  43
ATOM     43  OH  TYR A   4      46.659 273.884 166.403  0.00  0.00    -0.506 OA
ATOM     44  HH  TYR A   4      47.479 273.757 166.944  0.00  0.00    +0.292 HD
ENDBRANCH  40  43
ENDBRANCH  36  37
ENDBRANCH   5  36
ENDBRANCH   1   5
BRANCH   3  45
ATOM     45  CA  SER A   5      43.298 279.091 165.882  0.00  0.00    +0.178 C 
BRANCH  45  46
ATOM     46  C   SER A   5      42.720 280.500 165.730  0.00  0.00    +0.246 C 
ATOM     47  N   PRO A   6      43.476 281.527 166.163  0.00  0.00    -0.272 N 
ATOM     48  CD  PRO A   6      44.802 281.412 166.792  0.00  0.00    +0.094 C 
ATOM     49  CG  PRO A   6      45.061 282.802 167.308  0.00  0.00    +0.024 C 
ATOM     50  CB  PRO A   6      44.293 283.716 166.419  0.00  0.00    +0.031 C 
ATOM     51  CA  PRO A   6      43.036 282.927 166.055  0.00  0.00    +0.152 C 
ATOM     52  O   SER A   5      41.620 280.655 165.207  0.00  0.00    -0.273 OA
BRANCH  51  53
ATOM     53  C   PRO A   6      42.562 283.285 164.643  0.00  0.00    +0.241 C 
ATOM     54  O   PRO A   6      41.488 283.868 164.464  0.00  0.00    -0.273 OA
ATOM     55  N   LYS A   7      43.369 282.921 163.652  0.00  0.00    -0.297 N 
ATOM     56  H   LYS A   7      44.278 282.473 163.887  0.00  0.00    +0.150 HD
BRANCH  55  57
ATOM     57  CA  LYS A   7      43.032 283.124 162.249  0.00  0.00    +0.149 C 
BRANCH  57  58
ATOM     58  C   LYS A   7      41.658 282.529 161.887  0.00  0.00    +0.241 C 
ATOM     59  N   MET A   8      41.422 281.287 162.301  0.00  0.00    -0.297 N 
ATOM     60  H   MET A   8      42.126 280.795 162.887  0.00  0.00    +0.150 HD
ATOM     61  O   LYS A   7      40.807 283.205 161.270  0.00  0.00    -0.273 OA
BRANCH  59  62
ATOM     62  CA  MET A   8      40.172 280.607 161.934  0.00  0.00    +0.149 C 
BRANCH  62  63
ATOM     63  C   MET A   8      38.995 281.099 162.770  0.00  0.00    +0.241 C 
ATOM     64  N   ILE A   9      39.263 281.517 164.002  0.00  0.00    -0.298 N 
ATOM     65  H   ILE A   9      40.226 281.402 164.377  0.00  0.00    +0.150 HD
ATOM     66  O   MET A   8      37.871 281.116 162.297  0.00  0.00    -0.273 OA
BRANCH  64  67
ATOM     67  CA  ILE A   9      38.244 282.133 164.843  0.00  0.00    +0.137 C 
BRANCH  67  68
ATOM     68  CB  ILE A   9      38.798 282.404 166.260  0.00  0.00    +0.026 C 
ATOM     69  CG2 ILE A   9      37.919 283.412 167.008  0.00  0.00    +0.002 C 
BRANCH  68  70
ATOM     70  CG1 ILE A   9      38.913 281.089 167.045  0.00  0.00    +0.002 C 
ATOM     71  CD1 ILE A   9      39.782 281.198 168.271  0.00  0.00    +0.000 C 
ENDBRANCH  68  70
ENDBRANCH  67  68
BRANCH  67  72
ATOM     72  C   ILE A   9      37.732 283.445 164.218  0.00  0.00    +0.227 C 
ATOM     73  O   ILE A   9      36.523 283.660 164.116  0.00  0.00    -0.286 OA
ENDBRANCH  67  72
ENDBRANCH  64  67
ENDBRANCH  62  63
BRANCH  62  74
ATOM     74  CB  MET A   8      40.307 279.085 162.057  0.00  0.00    +0.041 C 
BRANCH  74  75
ATOM     75  CG  MET A   8      41.346 278.481 161.111  0.00  0.00    +0.060 C 
BRANCH  75  76
ATOM     76  SD  MET A   8      41.542 279.353 159.526  0.00  0.00    -0.139 S 
ATOM     77  CE  MET A   8      39.959 279.033 158.722  0.00  0.00    +0.069 C 
ENDBRANCH  75  76
ENDBRANCH  74  75
ENDBRANCH  62  74
ENDBRANCH  59  62
ENDBRANCH  57  58
BRANCH  57  78
ATOM     78  CB  LYS A   7      44.137 282.523 161.382  0.00  0.00    +0.029 C 
BRANCH  78  79
ATOM     79  CG  LYS A   7      43.816 282.347 159.916  0.00  0.00    +0.000 C 
BRANCH  79  80
ATOM     80  CD  LYS A   7      45.011 281.747 159.176  0.00  0.00    -0.024 C 
BRANCH  80  81
ATOM     81  CE  LYS A   7      45.453 280.430 159.817  0.00  0.00    -0.086 C 
BRANCH  81  82
ATOM     82  NZ  LYS A   7      46.639 279.819 159.135  0.00  0.00    +0.380 N 
ATOM     83  HZ1 LYS A   7      46.892 278.930 159.612  0.00  0.00    -0.089 HD
ATOM     84  HZ2 LYS A   7      47.441 280.479 159.180  0.00  0.00    -0.089 HD
ATOM     85  HZ3 LYS A   7      46.404 279.625 158.141  0.00  0.00    -0.089 HD
ENDBRANCH  81  82
ENDBRANCH  80  81
ENDBRANCH  79  80
ENDBRANCH  78  79
ENDBRANCH  57  78
ENDBRANCH  55  57
ENDBRANCH  51  53
ENDBRANCH  45  46
BRANCH  45  86
ATOM     86  CB  SER A   5      43.451 278.460 164.496  0.00  0.00    +0.166 C 
BRANCH  86  87
ATOM     87  OG  SER A   5      43.897 279.419 163.553  0.00  0.00    -0.380 OA
ATOM     88  H   SER A   5      43.239 280.156 163.498  0.00  0.00    +0.211 HD
ENDBRANCH  86  87
ENDBRANCH  45  86
ENDBRANCH   3  45
TORSDOF 39
REMARK  Name = ../refined-set-2016/4ymh/4ymh_pocket.pdb
REMARK  227 active torsions:
REMARK  status: ('A' for Active; 'I' for Inactive)
REMARK    1  A    between atoms: _1  and  _3
REMARK    2  A    between atoms: _3  and  _4
REMARK    3  A    between atoms: _3  and  _6
REMARK    4  A    between atoms: _6  and  _7
REMARK    5  A    between atoms: _12  and  _14
REMARK    6  A    between atoms: _14  and  _15
REMARK    7  A    between atoms: _14  and  _17
REMARK    8  A    between atoms: _17  and  _18
REMARK    9  A    between atoms: _28  and  _30
REMARK   10  A    between atoms: _30  and  _31
REMARK   11  A    between atoms: _30  and  _33
REMARK   12  A    between atoms: _33  and  _34
REMARK   13  A    between atoms: _37  and  _39
REMARK   14  A    between atoms: _39  and  _40
REMARK   15  A    between atoms: _39  and  _42
REMARK   16  A    between atoms: _42  and  _43
REMARK   17  A    between atoms: _46  and  _48
REMARK   18  A    between atoms: _48  and  _49
REMARK   19  A    between atoms: _52  and  _54
REMARK   20  A    between atoms: _54  and  _55
REMARK   21  A    between atoms: _54  and  _57
REMARK   22  A    between atoms: _57  and  _58
REMARK   23  A    between atoms: _61  and  _63
REMARK   24  A    between atoms: _63  and  _64
REMARK   25  A    between atoms: _63  and  _66
REMARK   26  A    between atoms: _66  and  _67
REMARK   27  A    between atoms: _67  and  _68
REMARK   28  A    between atoms: _68  and  _69
REMARK   29  A    between atoms: _69  and  _70
REMARK   30  A    between atoms: _74  and  _76
REMARK   31  A    between atoms: _76  and  _77
REMARK   32  A    between atoms: _76  and  _79
REMARK   33  A    between atoms: _79  and  _80
REMARK   34  A    between atoms: _80  and  _81
REMARK   35  A    between atoms: _83  and  _85
REMARK   36  A    between atoms: _85  and  _86
REMARK   37  A    between atoms: _85  and  _88
REMARK   38  A    between atoms: _88  and  _89
REMARK   39  A    between atoms: _91  and  _93
REMARK   40  A    between atoms: _93  and  _94
REMARK   41  A    between atoms: _93  and  _96
REMARK   42  A    between atoms: _96  and  _97
REMARK   43  A    between atoms: _99  and  _101
REMARK   44  A    between atoms: _101  and  _102
REMARK   45  A    between atoms: _101  and  _104
REMARK   46  A    between atoms: _104  and  _105
REMARK   47  A    between atoms: _105  and  _106
REMARK   48  A    between atoms: _111  and  _113
REMARK   49  A    between atoms: _113  and  _114
REMARK   50  A    between atoms: _116  and  _118
REMARK   51  A    between atoms: _118  and  _119
REMARK   52  A    between atoms: _118  and  _121
REMARK   53  A    between atoms: _121  and  _122
REMARK   54  A    between atoms: _122  and  _123
REMARK   55  A    between atoms: _125  and  _127
REMARK   56  A    between atoms: _127  and  _128
REMARK   57  A    between atoms: _127  and  _130
REMARK   58  A    between atoms: _130  and  _131
REMARK   59  A    between atoms: _131  and  _132
REMARK   60  A    between atoms: _135  and  _137
REMARK   61  A    between atoms: _137  and  _138
REMARK   62  A    between atoms: _137  and  _140
REMARK   63  A    between atoms: _140  and  _141
REMARK   64  A    between atoms: _144  and  _146
REMARK   65  A    between atoms: _146  and  _147
REMARK   66  A    between atoms: _149  and  _151
REMARK   67  A    between atoms: _151  and  _152
REMARK   68  A    between atoms: _151  and  _154
REMARK   69  A    between atoms: _156  and  _158
REMARK   70  A    between atoms: _158  and  _159
REMARK   71  A    between atoms: _158  and  _161
REMARK   72  A    between atoms: _161  and  _162
REMARK   73  A    between atoms: _167  and  _168
REMARK   74  A    between atoms: _170  and  _172
REMARK   75  A    between atoms: _172  and  _173
REMARK   76  A    between atoms: _172  and  _175
REMARK   77  A    between atoms: _175  and  _176
REMARK   78  A    between atoms: _178  and  _180
REMARK   79  A    between atoms: _180  and  _181
REMARK   80  A    between atoms: _183  and  _185
REMARK   81  A    between atoms: _185  and  _186
REMARK   82  A    between atoms: _185  and  _188
REMARK   83  A    between atoms: _188  and  _189
REMARK   84  A    between atoms: _194  and  _195
REMARK   85  A    between atoms: _197  and  _199
REMARK   86  A    between atoms: _199  and  _200
REMARK   87  A    between atoms: _199  and  _202
REMARK   88  A    between atoms: _202  and  _203
REMARK   89  A    between atoms: _205  and  _207
REMARK   90  A    between atoms: _207  and  _208
REMARK   91  A    between atoms: _211  and  _213
REMARK   92  A    between atoms: _213  and  _214
REMARK   93  A    between atoms: _213  and  _216
REMARK   94  A    between atoms: _216  and  _217
REMARK   95  A    between atoms: _220  and  _222
REMARK   96  A    between atoms: _222  and  _223
REMARK   97  A    between atoms: _226  and  _228
REMARK   98  A    between atoms: _228  and  _229
REMARK   99  A    between atoms: _228  and  _231
REMARK  100  A    between atoms: _231  and  _232
REMARK  101  A    between atoms: _242  and  _244
REMARK  102  A    between atoms: _244  and  _245
REMARK  103  A    between atoms: _244  and  _247
REMARK  104  A    between atoms: _247  and  _248
REMARK  105  A    between atoms: _251  and  _253
REMARK  106  A    between atoms: _253  and  _254
REMARK  107  A    between atoms: _253  and  _256
REMARK  108  A    between atoms: _256  and  _257
REMARK  109  A    between atoms: _260  and  _262
REMARK  110  A    between atoms: _262  and  _263
REMARK  111  A    between atoms: _262  and  _265
REMARK  112  A    between atoms: _265  and  _266
REMARK  113  A    between atoms: _266  and  _267
REMARK  114  A    between atoms: _270  and  _272
REMARK  115  A    between atoms: _272  and  _273
REMARK  116  A    between atoms: _272  and  _275
REMARK  117  A    between atoms: _275  and  _276
REMARK  118  A    between atoms: _281  and  _282
REMARK  119  A    between atoms: _284  and  _286
REMARK  120  A    between atoms: _286  and  _287
REMARK  121  A    between atoms: _286  and  _289
REMARK  122  A    between atoms: _289  and  _290
REMARK  123  A    between atoms: _293  and  _294
REMARK  124  A    between atoms: _299  and  _301
REMARK  125  A    between atoms: _301  and  _302
REMARK  126  A    between atoms: _301  and  _304
REMARK  127  A    between atoms: _304  and  _305
REMARK  128  A    between atoms: _305  and  _306
REMARK  129  A    between atoms: _306  and  _307
REMARK  130  A    between atoms: _307  and  _308
REMARK  131  A    between atoms: _312  and  _314
REMARK  132  A    between atoms: _314  and  _315
REMARK  133  A    between atoms: _314  and  _317
REMARK  134  A    between atoms: _317  and  _318
REMARK  135  A    between atoms: _318  and  _319
REMARK  136  A    between atoms: _321  and  _323
REMARK  137  A    between atoms: _323  and  _324
REMARK  138  A    between atoms: _323  and  _326
REMARK  139  A    between atoms: _326  and  _327
REMARK  140  A    between atoms: _330  and  _332
REMARK  141  A    between atoms: _332  and  _333
REMARK  142  A    between atoms: _332  and  _335
REMARK  143  A    between atoms: _335  and  _336
REMARK  144  A    between atoms: _338  and  _340
REMARK  145  A    between atoms: _340  and  _341
REMARK  146  A    between atoms: _340  and  _343
REMARK  147  A    between atoms: _343  and  _344
REMARK  148  A    between atoms: _347  and  _349
REMARK  149  A    between atoms: _349  and  _350
REMARK  150  A    between atoms: _349  and  _352
REMARK  151  A    between atoms: _352  and  _353
REMARK  152  A    between atoms: _353  and  _354
REMARK  153  A    between atoms: _357  and  _359
REMARK  154  A    between atoms: _359  and  _360
REMARK  155  A    between atoms: _363  and  _364
REMARK  156  A    between atoms: _369  and  _371
REMARK  157  A    between atoms: _371  and  _372
REMARK  158  A    between atoms: _375  and  _377
REMARK  159  A    between atoms: _377  and  _378
REMARK  160  A    between atoms: _377  and  _380
REMARK  161  A    between atoms: _380  and  _381
REMARK  162  A    between atoms: _381  and  _382
REMARK  163  A    between atoms: _385  and  _387
REMARK  164  A    between atoms: _387  and  _388
REMARK  165  A    between atoms: _387  and  _390
REMARK  166  A    between atoms: _390  and  _391
REMARK  167  A    between atoms: _396  and  _398
REMARK  168  A    between atoms: _398  and  _399
REMARK  169  A    between atoms: _398  and  _401
REMARK  170  A    between atoms: _401  and  _402
REMARK  171  A    between atoms: _405  and  _407
REMARK  172  A    between atoms: _407  and  _408
REMARK  173  A    between atoms: _407  and  _410
REMARK  174  A    between atoms: _410  and  _411
REMARK  175  A    between atoms: _414  and  _416
REMARK  176  A    between atoms: _416  and  _417
REMARK  177  A    between atoms: _416  and  _419
REMARK  178  A    between atoms: _419  and  _420
REMARK  179  A    between atoms: _426  and  _428
REMARK  180  A    between atoms: _428  and  _429
REMARK  181  A    between atoms: _428  and  _431
REMARK  182  A    between atoms: _434  and  _436
REMARK  183  A    between atoms: _436  and  _437
REMARK  184  A    between atoms: _436  and  _439
REMARK  185  A    between atoms: _439  and  _440
REMARK  186  A    between atoms: _443  and  _445
REMARK  187  A    between atoms: _445  and  _446
REMARK  188  A    between atoms: _449  and  _451
REMARK  189  A    between atoms: _451  and  _452
REMARK  190  A    between atoms: _451  and  _454
REMARK  191  A    between atoms: _454  and  _455
REMARK  192  A    between atoms: _460  and  _462
REMARK  193  A    between atoms: _462  and  _463
REMARK  194  A    between atoms: _462  and  _465
REMARK  195  A    between atoms: _465  and  _466
REMARK  196  A    between atoms: _466  and  _467
REMARK  197  A    between atoms: _467  and  _468
REMARK  198  A    between atoms: _468  and  _469
REMARK  199  A    between atoms: _473  and  _475
REMARK  200  A    between atoms: _475  and  _476
REMARK  201  A    between atoms: _475  and  _478
REMARK  202  A    between atoms: _478  and  _479
REMARK  203  A    between atoms: _482  and  _484
REMARK  204  A    between atoms: _484  and  _485
REMARK  205  A    between atoms: _487  and  _489
REMARK  206  A    between atoms: _489  and  _490
REMARK  207  A    between atoms: _489  and  _492
REMARK  208  A    between atoms: _492  and  _493
REMARK  209  A    between atoms: _498  and  _499
REMARK  210  A    between atoms: _501  and  _503
REMARK  211  A    between atoms: _503  and  _504
REMARK  212  A    between atoms: _503  and  _506
REMARK  213  A    between atoms: _506  and  _507
REMARK  214  A    between atoms: _512  and  _513
REMARK  215  A    between atoms: _515  and  _517
REMARK  216  A    between atoms: _517  and  _518
REMARK  217  A    between atoms: _517  and  _520
REMARK  218  A    between atoms: _520  and  _521
REMARK  219  A    between atoms: _524  and  _526
REMARK  220  A    between atoms: _526  and  _527
REMARK  221  A    between atoms: _526  and  _529
REMARK  222  A    between atoms: _529  and  _530
REMARK  223  A    between atoms: _535  and  _537
REMARK  224  A    between atoms: _537  and  _538
REMARK  225  A    between atoms: _537  and  _540
REMARK  226  A    between atoms: _540  and  _541
REMARK  227  A    between atoms: _546  and  _547
REMARK                            x       y       z     vdW  Elec       q    Type
REMARK                         _______ _______ _______ _____ _____    ______ ____
ROOT
ATOM      1  CA  SER A   1      34.419 281.966 161.427  0.00  0.00    +0.163 C 
ENDROOT
BRANCH   1   2
ATOM      2  N   SER A   1      35.702 282.557 161.096  0.00  0.00    -0.237 NA
ATOM      3  H   SER A   1      36.535 282.296 161.661  0.00  0.00    +0.142 HD
ENDBRANCH   1   2
BRANCH   1   4
ATOM      4  CB  SER A   1      33.424 282.961 161.986  0.00  0.00    +0.227 C 
ATOM      5  OG  SER A   1      32.255 282.928 161.603  0.00  0.00    -0.287 OA
ENDBRANCH   1   4
BRANCH   1   6
ATOM      6  C   SER A   1      34.605 280.824 162.423  0.00  0.00    +0.162 C 
BRANCH   6   7
ATOM      7  O   SER A   1      35.209 279.721 161.784  0.00  0.00    -0.380 OA
ATOM      8  H   SER A   1      36.092 279.991 161.428  0.00  0.00    +0.211 HD
ENDBRANCH   6   7
ENDBRANCH   1   6
TORSDOF 4
REMARK  Name = ../refined-set-2016/4ymh/4ymh_pocket.pdb
REMARK  227 active torsions:
REMARK  status: ('A' for Active; 'I' for Inactive)
REMARK    1  A    between atoms: _1  and  _3
REMARK    2  A    between atoms: _3  and  _4
REMARK    3  A    between atoms: _3  and  _6
REMARK    4  A    between atoms: _6  and  _7
REMARK    5  A    between atoms: _12  and  _14
REMARK    6  A    between atoms: _14  and  _15
REMARK    7  A    between atoms: _14  and  _17
REMARK    8  A    between atoms: _17  and  _18
REMARK    9  A    between atoms: _28  and  _30
REMARK   10  A    between atoms: _30  and  _31
REMARK   11  A    between atoms: _30  and  _33
REMARK   12  A    between atoms: _33  and  _34
REMARK   13  A    between atoms: _37  and  _39
REMARK   14  A    between atoms: _39  and  _40
REMARK   15  A    between atoms: _39  and  _42
REMARK   16  A    between atoms: _42  and  _43
REMARK   17  A    between atoms: _46  and  _48
REMARK   18  A    between atoms: _48  and  _49
REMARK   19  A    between atoms: _52  and  _54
REMARK   20  A    between atoms: _54  and  _55
REMARK   21  A    between atoms: _54  and  _57
REMARK   22  A    between atoms: _57  and  _58
REMARK   23  A    between atoms: _61  and  _63
REMARK   24  A    between atoms: _63  and  _64
REMARK   25  A    between atoms: _63  and  _66
REMARK   26  A    between atoms: _66  and  _67
REMARK   27  A    between atoms: _67  and  _68
REMARK   28  A    between atoms: _68  and  _69
REMARK   29  A    between atoms: _69  and  _70
REMARK   30  A    between atoms: _74  and  _76
REMARK   31  A    between atoms: _76  and  _77
REMARK   32  A    between atoms: _76  and  _79
REMARK   33  A    between atoms: _79  and  _80
REMARK   34  A    between atoms: _80  and  _81
REMARK   35  A    between atoms: _83  and  _85
REMARK   36  A    between atoms: _85  and  _86
REMARK   37  A    between atoms: _85  and  _88
REMARK   38  A    between atoms: _88  and  _89
REMARK   39  A    between atoms: _91  and  _93
REMARK   40  A    between atoms: _93  and  _94
REMARK   41  A    between atoms: _93  and  _96
REMARK   42  A    between atoms: _96  and  _97
REMARK   43  A    between atoms: _99  and  _101
REMARK   44  A    between atoms: _101  and  _102
REMARK   45  A    between atoms: _101  and  _104
REMARK   46  A    between atoms: _104  and  _105
REMARK   47  A    between atoms: _105  and  _106
REMARK   48  A    between atoms: _111  and  _113
REMARK   49  A    between atoms: _113  and  _114
REMARK   50  A    between atoms: _116  and  _118
REMARK   51  A    between atoms: _118  and  _119
REMARK   52  A    between atoms: _118  and  _121
REMARK   53  A    between atoms: _121  and  _122
REMARK   54  A    between atoms: _122  and  _123
REMARK   55  A    between atoms: _125  and  _127
REMARK   56  A    between atoms: _127  and  _128
REMARK   57  A    between atoms: _127  and  _130
REMARK   58  A    between atoms: _130  and  _131
REMARK   59  A    between atoms: _131  and  _132
REMARK   60  A    between atoms: _135  and  _137
REMARK   61  A    between atoms: _137  and  _138
REMARK   62  A    between atoms: _137  and  _140
REMARK   63  A    between atoms: _140  and  _141
REMARK   64  A    between atoms: _144  and  _146
REMARK   65  A    between atoms: _146  and  _147
REMARK   66  A    between atoms: _149  and  _151
REMARK   67  A    between atoms: _151  and  _152
REMARK   68  A    between atoms: _151  and  _154
REMARK   69  A    between atoms: _156  and  _158
REMARK   70  A    between atoms: _158  and  _159
REMARK   71  A    between atoms: _158  and  _161
REMARK   72  A    between atoms: _161  and  _162
REMARK   73  A    between atoms: _167  and  _168
REMARK   74  A    between atoms: _170  and  _172
REMARK   75  A    between atoms: _172  and  _173
REMARK   76  A    between atoms: _172  and  _175
REMARK   77  A    between atoms: _175  and  _176
REMARK   78  A    between atoms: _178  and  _180
REMARK   79  A    between atoms: _180  and  _181
REMARK   80  A    between atoms: _183  and  _185
REMARK   81  A    between atoms: _185  and  _186
REMARK   82  A    between atoms: _185  and  _188
REMARK   83  A    between atoms: _188  and  _189
REMARK   84  A    between atoms: _194  and  _195
REMARK   85  A    between atoms: _197  and  _199
REMARK   86  A    between atoms: _199  and  _200
REMARK   87  A    between atoms: _199  and  _202
REMARK   88  A    between atoms: _202  and  _203
REMARK   89  A    between atoms: _205  and  _207
REMARK   90  A    between atoms: _207  and  _208
REMARK   91  A    between atoms: _211  and  _213
REMARK   92  A    between atoms: _213  and  _214
REMARK   93  A    between atoms: _213  and  _216
REMARK   94  A    between atoms: _216  and  _217
REMARK   95  A    between atoms: _220  and  _222
REMARK   96  A    between atoms: _222  and  _223
REMARK   97  A    between atoms: _226  and  _228
REMARK   98  A    between atoms: _228  and  _229
REMARK   99  A    between atoms: _228  and  _231
REMARK  100  A    between atoms: _231  and  _232
REMARK  101  A    between atoms: _242  and  _244
REMARK  102  A    between atoms: _244  and  _245
REMARK  103  A    between atoms: _244  and  _247
REMARK  104  A    between atoms: _247  and  _248
REMARK  105  A    between atoms: _251  and  _253
REMARK  106  A    between atoms: _253  and  _254
REMARK  107  A    between atoms: _253  and  _256
REMARK  108  A    between atoms: _256  and  _257
REMARK  109  A    between atoms: _260  and  _262
REMARK  110  A    between atoms: _262  and  _263
REMARK  111  A    between atoms: _262  and  _265
REMARK  112  A    between atoms: _265  and  _266
REMARK  113  A    between atoms: _266  and  _267
REMARK  114  A    between atoms: _270  and  _272
REMARK  115  A    between atoms: _272  and  _273
REMARK  116  A    between atoms: _272  and  _275
REMARK  117  A    between atoms: _275  and  _276
REMARK  118  A    between atoms: _281  and  _282
REMARK  119  A    between atoms: _284  and  _286
REMARK  120  A    between atoms: _286  and  _287
REMARK  121  A    between atoms: _286  and  _289
REMARK  122  A    between atoms: _289  and  _290
REMARK  123  A    between atoms: _293  and  _294
REMARK  124  A    between atoms: _299  and  _301
REMARK  125  A    between atoms: _301  and  _302
REMARK  126  A    between atoms: _301  and  _304
REMARK  127  A    between atoms: _304  and  _305
REMARK  128  A    between atoms: _305  and  _306
REMARK  129  A    between atoms: _306  and  _307
REMARK  130  A    between atoms: _307  and  _308
REMARK  131  A    between atoms: _312  and  _314
REMARK  132  A    between atoms: _314  and  _315
REMARK  133  A    between atoms: _314  and  _317
REMARK  134  A    between atoms: _317  and  _318
REMARK  135  A    between atoms: _318  and  _319
REMARK  136  A    between atoms: _321  and  _323
REMARK  137  A    between atoms: _323  and  _324
REMARK  138  A    between atoms: _323  and  _326
REMARK  139  A    between atoms: _326  and  _327
REMARK  140  A    between atoms: _330  and  _332
REMARK  141  A    between atoms: _332  and  _333
REMARK  142  A    between atoms: _332  and  _335
REMARK  143  A    between atoms: _335  and  _336
REMARK  144  A    between atoms: _338  and  _340
REMARK  145  A    between atoms: _340  and  _341
REMARK  146  A    between atoms: _340  and  _343
REMARK  147  A    between atoms: _343  and  _344
REMARK  148  A    between atoms: _347  and  _349
REMARK  149  A    between atoms: _349  and  _350
REMARK  150  A    between atoms: _349  and  _352
REMARK  151  A    between atoms: _352  and  _353
REMARK  152  A    between atoms: _353  and  _354
REMARK  153  A    between atoms: _357  and  _359
REMARK  154  A    between atoms: _359  and  _360
REMARK  155  A    between atoms: _363  and  _364
REMARK  156  A    between atoms: _369  and  _371
REMARK  157  A    between atoms: _371  and  _372
REMARK  158  A    between atoms: _375  and  _377
REMARK  159  A    between atoms: _377  and  _378
REMARK  160  A    between atoms: _377  and  _380
REMARK  161  A    between atoms: _380  and  _381
REMARK  162  A    between atoms: _381  and  _382
REMARK  163  A    between atoms: _385  and  _387
REMARK  164  A    between atoms: _387  and  _388
REMARK  165  A    between atoms: _387  and  _390
REMARK  166  A    between atoms: _390  and  _391
REMARK  167  A    between atoms: _396  and  _398
REMARK  168  A    between atoms: _398  and  _399
REMARK  169  A    between atoms: _398  and  _401
REMARK  170  A    between atoms: _401  and  _402
REMARK  171  A    between atoms: _405  and  _407
REMARK  172  A    between atoms: _407  and  _408
REMARK  173  A    between atoms: _407  and  _410
REMARK  174  A    between atoms: _410  and  _411
REMARK  175  A    between atoms: _414  and  _416
REMARK  176  A    between atoms: _416  and  _417
REMARK  177  A    between atoms: _416  and  _419
REMARK  178  A    between atoms: _419  and  _420
REMARK  179  A    between atoms: _426  and  _428
REMARK  180  A    between atoms: _428  and  _429
REMARK  181  A    between atoms: _428  and  _431
REMARK  182  A    between atoms: _434  and  _436
REMARK  183  A    between atoms: _436  and  _437
REMARK  184  A    between atoms: _436  and  _439
REMARK  185  A    between atoms: _439  and  _440
REMARK  186  A    between atoms: _443  and  _445
REMARK  187  A    between atoms: _445  and  _446
REMARK  188  A    between atoms: _449  and  _451
REMARK  189  A    between atoms: _451  and  _452
REMARK  190  A    between atoms: _451  and  _454
REMARK  191  A    between atoms: _454  and  _455
REMARK  192  A    between atoms: _460  and  _462
REMARK  193  A    between atoms: _462  and  _463
REMARK  194  A    between atoms: _462  and  _465
REMARK  195  A    between atoms: _465  and  _466
REMARK  196  A    between atoms: _466  and  _467
REMARK  197  A    between atoms: _467  and  _468
REMARK  198  A    between atoms: _468  and  _469
REMARK  199  A    between atoms: _473  and  _475
REMARK  200  A    between atoms: _475  and  _476
REMARK  201  A    between atoms: _475  and  _478
REMARK  202  A    between atoms: _478  and  _479
REMARK  203  A    between atoms: _482  and  _484
REMARK  204  A    between atoms: _484  and  _485
REMARK  205  A    between atoms: _487  and  _489
REMARK  206  A    between atoms: _489  and  _490
REMARK  207  A    between atoms: _489  and  _492
REMARK  208  A    between atoms: _492  and  _493
REMARK  209  A    between atoms: _498  and  _499
REMARK  210  A    between atoms: _501  and  _503
REMARK  211  A    between atoms: _503  and  _504
REMARK  212  A    between atoms: _503  and  _506
REMARK  213  A    between atoms: _506  and  _507
REMARK  214  A    between atoms: _512  and  _513
REMARK  215  A    between atoms: _515  and  _517
REMARK  216  A    between atoms: _517  and  _518
REMARK  217  A    between atoms: _517  and  _520
REMARK  218  A    between atoms: _520  and  _521
REMARK  219  A    between atoms: _524  and  _526
REMARK  220  A    between atoms: _526  and  _527
REMARK  221  A    between atoms: _526  and  _529
REMARK  222  A    between atoms: _529  and  _530
REMARK  223  A    between atoms: _535  and  _537
REMARK  224  A    between atoms: _537  and  _538
REMARK  225  A    between atoms: _537  and  _540
REMARK  226  A    between atoms: _540  and  _541
REMARK  227  A    between atoms: _546  and  _547
REMARK                            x       y       z     vdW  Elec       q    Type
REMARK                         _______ _______ _______ _____ _____    ______ ____
ROOT
ATOM      1  C   ALA A   5      39.726 271.248 174.246  0.00  0.00    +0.241 C 
ATOM      2  O   ALA A   5      38.758 270.921 174.936  0.00  0.00    -0.273 OA
ATOM      3  N   GLU A   6      40.960 270.804 174.467  0.00  0.00    -0.297 N 
ATOM      4  H   GLU A   6      41.738 271.129 173.859  0.00  0.00    +0.150 HD
ENDROOT
BRANCH   1   5
ATOM      5  CA  ALA A   5      39.539 272.199 173.070  0.00  0.00    +0.149 C 
ATOM      6  CB  ALA A   5      39.100 271.426 171.846  0.00  0.00    +0.031 C 
BRANCH   5   9
ATOM      7  C   PRO A   4      41.278 273.800 173.681  0.00  0.00    +0.241 C 
ATOM      8  O   PRO A   4      40.867 273.924 174.834  0.00  0.00    -0.273 OA
ATOM      9  N   ALA A   5      40.744 272.973 172.783  0.00  0.00    -0.297 N 
ATOM     10  H   ALA A   5      41.198 272.876 171.852  0.00  0.00    +0.150 HD
BRANCH   7  16
ATOM     11  C   GLY A   3      41.053 276.603 172.842  0.00  0.00    +0.246 C 
ATOM     12  N   PRO A   4      42.139 276.063 173.416  0.00  0.00    -0.272 N 
ATOM     13  CD  PRO A   4      42.975 276.711 174.441  0.00  0.00    +0.094 C 
ATOM     14  CG  PRO A   4      44.160 275.802 174.533  0.00  0.00    +0.024 C 
ATOM     15  CB  PRO A   4      43.653 274.425 174.202  0.00  0.00    +0.031 C 
ATOM     16  CA  PRO A   4      42.462 274.641 173.253  0.00  0.00    +0.152 C 
ATOM     17  O   GLY A   3      40.280 275.966 172.113  0.00  0.00    -0.273 OA
BRANCH  11  18
ATOM     18  CA  GLY A   3      40.792 278.063 173.138  0.00  0.00    +0.176 C 
BRANCH  18  21
ATOM     19  C   GLU A   2      38.743 279.252 172.707  0.00  0.00    +0.241 C 
ATOM     20  O   GLU A   2      38.503 279.347 173.881  0.00  0.00    -0.273 OA
ATOM     21  N   GLY A   3      39.786 278.604 172.249  0.00  0.00    -0.295 N 
ATOM     22  H   GLY A   3      39.893 278.475 171.223  0.00  0.00    +0.150 HD
BRANCH  19  23
ATOM     23  CA  GLU A   2      37.845 279.888 171.666  0.00  0.00    +0.149 C 
BRANCH  23  25
ATOM     24  C   ILE A   1      35.702 278.831 171.677  0.00  0.00    +0.238 C 
ATOM     25  N   GLU A   2      36.474 279.837 172.040  0.00  0.00    -0.297 N 
ATOM     26  H   GLU A   2      36.072 280.608 172.611  0.00  0.00    +0.150 HD
ATOM     27  O   ILE A   1      36.126 277.817 171.087  0.00  0.00    -0.274 OA
BRANCH  24  28
ATOM     28  CA  ILE A   1      34.233 278.993 172.038  0.00  0.00    +0.145 C 
BRANCH  28  29
ATOM     29  N   ILE A   1      33.425 278.901 170.840  0.00  0.00    -0.238 NA
ATOM     30  H   ILE A   1      33.364 277.991 170.339  0.00  0.00    +0.142 HD
ENDBRANCH  28  29
BRANCH  28  31
ATOM     31  CB  ILE A   1      33.804 277.940 173.081  0.00  0.00    +0.025 C 
ATOM     32  CG2 ILE A   1      34.705 277.998 174.312  0.00  0.00    +0.002 C 
BRANCH  31  33
ATOM     33  CG1 ILE A   1      32.331 278.168 173.455  0.00  0.00    +0.002 C 
ATOM     34  CD1 ILE A   1      31.795 277.210 174.479  0.00  0.00    +0.000 C 
ENDBRANCH  31  33
ENDBRANCH  28  31
ENDBRANCH  24  28
ENDBRANCH  23  25
BRANCH  23  35
ATOM     35  CB  GLU A   2      38.217 281.327 171.423  0.00  0.00    +0.041 C 
BRANCH  35  36
ATOM     36  CG  GLU A   2      37.728 282.237 172.518  0.00  0.00    +0.116 C 
BRANCH  36  37
ATOM     37  CD  GLU A   2      36.269 282.685 172.413  0.00  0.00    +0.365 C 
ATOM     38  OE2 GLU A   2      35.398 282.143 173.139  0.00  0.00    -0.246 OA
ATOM     39  OE1 GLU A   2      36.018 283.651 171.664  0.00  0.00    -0.246 OA
ENDBRANCH  36  37
ENDBRANCH  35  36
ENDBRANCH  23  35
ENDBRANCH  19  23
ENDBRANCH  18  21
ENDBRANCH  11  18
ENDBRANCH   7  16
ENDBRANCH   5   9
ENDBRANCH   1   5
BRANCH   3  40
ATOM     40  CA  GLU A   6      41.236 269.870 175.548  0.00  0.00    +0.149 C 
BRANCH  40  41
ATOM     41  C   GLU A   6      40.815 270.467 176.891  0.00  0.00    +0.241 C 
ATOM     42  O   GLU A   6      40.286 269.758 177.748  0.00  0.00    -0.273 OA
ATOM     43  N   ASN A   7      40.985 271.776 177.059  0.00  0.00    -0.297 N 
ATOM     44  H   ASN A   7      41.454 272.338 176.320  0.00  0.00    +0.150 HD
BRANCH  43  45
ATOM     45  CA  ASN A   7      40.512 272.428 178.286  0.00  0.00    +0.158 C 
BRANCH  45  46
ATOM     46  C   ASN A   7      39.069 272.941 178.227  0.00  0.00    +0.241 C 
ATOM     47  O   ASN A   7      38.313 272.750 179.171  0.00  0.00    -0.273 OA
ATOM     48  N   THR A   8      38.670 273.570 177.126  0.00  0.00    -0.295 N 
ATOM     49  H   THR A   8      39.305 273.645 176.306  0.00  0.00    +0.150 HD
BRANCH  48  50
ATOM     50  CA  THR A   8      37.322 274.160 177.077  0.00  0.00    +0.176 C 
BRANCH  50  51
ATOM     51  C   THR A   8      36.230 273.097 177.083  0.00  0.00    +0.243 C 
ATOM     52  O   THR A   8      35.178 273.312 177.672  0.00  0.00    -0.273 OA
ATOM     53  N   LEU A   9      36.481 271.949 176.454  0.00  0.00    -0.298 N 
ATOM     54  H   LEU A   9      37.392 271.824 175.967  0.00  0.00    +0.150 HD
BRANCH  53  55
ATOM     55  CA  LEU A   9      35.499 270.856 176.433  0.00  0.00    +0.137 C 
BRANCH  55  56
ATOM     56  C   LEU A   9      35.089 270.459 177.855  0.00  0.00    +0.227 C 
ATOM     57  O   LEU A   9      33.921 270.179 178.110  0.00  0.00    -0.286 OA
ENDBRANCH  55  56
BRANCH  55  58
ATOM     58  CB  LEU A   9      36.049 269.634 175.682  0.00  0.00    +0.028 C 
BRANCH  58  59
ATOM     59  CG  LEU A   9      35.212 268.346 175.665  0.00  0.00    +0.002 C 
ATOM     60  CD2 LEU A   9      36.016 267.195 175.045  0.00  0.00    +0.000 C 
ATOM     61  CD1 LEU A   9      33.904 268.551 174.905  0.00  0.00    +0.000 C 
ENDBRANCH  58  59
ENDBRANCH  55  58
ENDBRANCH  53  55
ENDBRANCH  50  51
BRANCH  50  62
ATOM     62  CB  THR A   8      37.127 275.076 175.851  0.00  0.00    +0.137 C 
ATOM     63  CG2 THR A   8      38.139 276.228 175.878  0.00  0.00    +0.034 C 
BRANCH  62  64
ATOM     64  OG1 THR A   8      37.307 274.319 174.655  0.00  0.00    -0.382 OA
ATOM     65  HG1 THR A   8      37.181 274.909 173.870  0.00  0.00    +0.210 HD
ENDBRANCH  62  64
ENDBRANCH  50  62
ENDBRANCH  48  50
ENDBRANCH  45  46
BRANCH  45  66
ATOM     66  CB  ASN A   7      41.425 273.588 178.684  0.00  0.00    +0.114 C 
BRANCH  66  67
ATOM     67  CG  ASN A   7      42.898 273.244 178.561  0.00  0.00    +0.222 C 
ATOM     68  OD1 ASN A   7      43.406 272.391 179.289  0.00  0.00    -0.275 OA
ATOM     69  ND2 ASN A   7      43.608 273.966 177.705  0.00  0.00    -0.329 N 
ATOM     70 HD21 ASN A   7      44.635 273.822 177.630  0.00  0.00    +0.145 HD
ATOM     71 HD22 ASN A   7      43.138 274.676 177.109  0.00  0.00    +0.145 HD
ENDBRANCH  66  67
ENDBRANCH  45  66
ENDBRANCH  43  45
ENDBRANCH  40  41
BRANCH  40  72
ATOM     72  CB  GLU A   6      42.714 269.457 175.546  0.00  0.00    +0.041 C 
BRANCH  72  73
ATOM     73  CG  GLU A   6      43.729 270.594 175.520  0.00  0.00    +0.116 C 
BRANCH  73  74
ATOM     74  CD  GLU A   6      44.253 270.967 174.123  0.00  0.00    +0.365 C 
ATOM     75  OE2 GLU A   6      45.410 271.444 174.040  0.00  0.00    -0.246 OA
ATOM     76  OE1 GLU A   6      43.538 270.781 173.116  0.00  0.00    -0.246 OA
ENDBRANCH  73  74
ENDBRANCH  72  73
ENDBRANCH  40  72
ENDBRANCH   3  40
TORSDOF 31
REMARK  Name = ../refined-set-2016/4ymh/4ymh_pocket.pdb
REMARK  227 active torsions:
REMARK  status: ('A' for Active; 'I' for Inactive)
REMARK    1  A    between atoms: _1  and  _3
REMARK    2  A    between atoms: _3  and  _4
REMARK    3  A    between atoms: _3  and  _6
REMARK    4  A    between atoms: _6  and  _7
REMARK    5  A    between atoms: _12  and  _14
REMARK    6  A    between atoms: _14  and  _15
REMARK    7  A    between atoms: _14  and  _17
REMARK    8  A    between atoms: _17  and  _18
REMARK    9  A    between atoms: _28  and  _30
REMARK   10  A    between atoms: _30  and  _31
REMARK   11  A    between atoms: _30  and  _33
REMARK   12  A    between atoms: _33  and  _34
REMARK   13  A    between atoms: _37  and  _39
REMARK   14  A    between atoms: _39  and  _40
REMARK   15  A    between atoms: _39  and  _42
REMARK   16  A    between atoms: _42  and  _43
REMARK   17  A    between atoms: _46  and  _48
REMARK   18  A    between atoms: _48  and  _49
REMARK   19  A    between atoms: _52  and  _54
REMARK   20  A    between atoms: _54  and  _55
REMARK   21  A    between atoms: _54  and  _57
REMARK   22  A    between atoms: _57  and  _58
REMARK   23  A    between atoms: _61  and  _63
REMARK   24  A    between atoms: _63  and  _64
REMARK   25  A    between atoms: _63  and  _66
REMARK   26  A    between atoms: _66  and  _67
REMARK   27  A    between atoms: _67  and  _68
REMARK   28  A    between atoms: _68  and  _69
REMARK   29  A    between atoms: _69  and  _70
REMARK   30  A    between atoms: _74  and  _76
REMARK   31  A    between atoms: _76  and  _77
REMARK   32  A    between atoms: _76  and  _79
REMARK   33  A    between atoms: _79  and  _80
REMARK   34  A    between atoms: _80  and  _81
REMARK   35  A    between atoms: _83  and  _85
REMARK   36  A    between atoms: _85  and  _86
REMARK   37  A    between atoms: _85  and  _88
REMARK   38  A    between atoms: _88  and  _89
REMARK   39  A    between atoms: _91  and  _93
REMARK   40  A    between atoms: _93  and  _94
REMARK   41  A    between atoms: _93  and  _96
REMARK   42  A    between atoms: _96  and  _97
REMARK   43  A    between atoms: _99  and  _101
REMARK   44  A    between atoms: _101  and  _102
REMARK   45  A    between atoms: _101  and  _104
REMARK   46  A    between atoms: _104  and  _105
REMARK   47  A    between atoms: _105  and  _106
REMARK   48  A    between atoms: _111  and  _113
REMARK   49  A    between atoms: _113  and  _114
REMARK   50  A    between atoms: _116  and  _118
REMARK   51  A    between atoms: _118  and  _119
REMARK   52  A    between atoms: _118  and  _121
REMARK   53  A    between atoms: _121  and  _122
REMARK   54  A    between atoms: _122  and  _123
REMARK   55  A    between atoms: _125  and  _127
REMARK   56  A    between atoms: _127  and  _128
REMARK   57  A    between atoms: _127  and  _130
REMARK   58  A    between atoms: _130  and  _131
REMARK   59  A    between atoms: _131  and  _132
REMARK   60  A    between atoms: _135  and  _137
REMARK   61  A    between atoms: _137  and  _138
REMARK   62  A    between atoms: _137  and  _140
REMARK   63  A    between atoms: _140  and  _141
REMARK   64  A    between atoms: _144  and  _146
REMARK   65  A    between atoms: _146  and  _147
REMARK   66  A    between atoms: _149  and  _151
REMARK   67  A    between atoms: _151  and  _152
REMARK   68  A    between atoms: _151  and  _154
REMARK   69  A    between atoms: _156  and  _158
REMARK   70  A    between atoms: _158  and  _159
REMARK   71  A    between atoms: _158  and  _161
REMARK   72  A    between atoms: _161  and  _162
REMARK   73  A    between atoms: _167  and  _168
REMARK   74  A    between atoms: _170  and  _172
REMARK   75  A    between atoms: _172  and  _173
REMARK   76  A    between atoms: _172  and  _175
REMARK   77  A    between atoms: _175  and  _176
REMARK   78  A    between atoms: _178  and  _180
REMARK   79  A    between atoms: _180  and  _181
REMARK   80  A    between atoms: _183  and  _185
REMARK   81  A    between atoms: _185  and  _186
REMARK   82  A    between atoms: _185  and  _188
REMARK   83  A    between atoms: _188  and  _189
REMARK   84  A    between atoms: _194  and  _195
REMARK   85  A    between atoms: _197  and  _199
REMARK   86  A    between atoms: _199  and  _200
REMARK   87  A    between atoms: _199  and  _202
REMARK   88  A    between atoms: _202  and  _203
REMARK   89  A    between atoms: _205  and  _207
REMARK   90  A    between atoms: _207  and  _208
REMARK   91  A    between atoms: _211  and  _213
REMARK   92  A    between atoms: _213  and  _214
REMARK   93  A    between atoms: _213  and  _216
REMARK   94  A    between atoms: _216  and  _217
REMARK   95  A    between atoms: _220  and  _222
REMARK   96  A    between atoms: _222  and  _223
REMARK   97  A    between atoms: _226  and  _228
REMARK   98  A    between atoms: _228  and  _229
REMARK   99  A    between atoms: _228  and  _231
REMARK  100  A    between atoms: _231  and  _232
REMARK  101  A    between atoms: _242  and  _244
REMARK  102  A    between atoms: _244  and  _245
REMARK  103  A    between atoms: _244  and  _247
REMARK  104  A    between atoms: _247  and  _248
REMARK  105  A    between atoms: _251  and  _253
REMARK  106  A    between atoms: _253  and  _254
REMARK  107  A    between atoms: _253  and  _256
REMARK  108  A    between atoms: _256  and  _257
REMARK  109  A    between atoms: _260  and  _262
REMARK  110  A    between atoms: _262  and  _263
REMARK  111  A    between atoms: _262  and  _265
REMARK  112  A    between atoms: _265  and  _266
REMARK  113  A    between atoms: _266  and  _267
REMARK  114  A    between atoms: _270  and  _272
REMARK  115  A    between atoms: _272  and  _273
REMARK  116  A    between atoms: _272  and  _275
REMARK  117  A    between atoms: _275  and  _276
REMARK  118  A    between atoms: _281  and  _282
REMARK  119  A    between atoms: _284  and  _286
REMARK  120  A    between atoms: _286  and  _287
REMARK  121  A    between atoms: _286  and  _289
REMARK  122  A    between atoms: _289  and  _290
REMARK  123  A    between atoms: _293  and  _294
REMARK  124  A    between atoms: _299  and  _301
REMARK  125  A    between atoms: _301  and  _302
REMARK  126  A    between atoms: _301  and  _304
REMARK  127  A    between atoms: _304  and  _305
REMARK  128  A    between atoms: _305  and  _306
REMARK  129  A    between atoms: _306  and  _307
REMARK  130  A    between atoms: _307  and  _308
REMARK  131  A    between atoms: _312  and  _314
REMARK  132  A    between atoms: _314  and  _315
REMARK  133  A    between atoms: _314  and  _317
REMARK  134  A    between atoms: _317  and  _318
REMARK  135  A    between atoms: _318  and  _319
REMARK  136  A    between atoms: _321  and  _323
REMARK  137  A    between atoms: _323  and  _324
REMARK  138  A    between atoms: _323  and  _326
REMARK  139  A    between atoms: _326  and  _327
REMARK  140  A    between atoms: _330  and  _332
REMARK  141  A    between atoms: _332  and  _333
REMARK  142  A    between atoms: _332  and  _335
REMARK  143  A    between atoms: _335  and  _336
REMARK  144  A    between atoms: _338  and  _340
REMARK  145  A    between atoms: _340  and  _341
REMARK  146  A    between atoms: _340  and  _343
REMARK  147  A    between atoms: _343  and  _344
REMARK  148  A    between atoms: _347  and  _349
REMARK  149  A    between atoms: _349  and  _350
REMARK  150  A    between atoms: _349  and  _352
REMARK  151  A    between atoms: _352  and  _353
REMARK  152  A    between atoms: _353  and  _354
REMARK  153  A    between atoms: _357  and  _359
REMARK  154  A    between atoms: _359  and  _360
REMARK  155  A    between atoms: _363  and  _364
REMARK  156  A    between atoms: _369  and  _371
REMARK  157  A    between atoms: _371  and  _372
REMARK  158  A    between atoms: _375  and  _377
REMARK  159  A    between atoms: _377  and  _378
REMARK  160  A    between atoms: _377  and  _380
REMARK  161  A    between atoms: _380  and  _381
REMARK  162  A    between atoms: _381  and  _382
REMARK  163  A    between atoms: _385  and  _387
REMARK  164  A    between atoms: _387  and  _388
REMARK  165  A    between atoms: _387  and  _390
REMARK  166  A    between atoms: _390  and  _391
REMARK  167  A    between atoms: _396  and  _398
REMARK  168  A    between atoms: _398  and  _399
REMARK  169  A    between atoms: _398  and  _401
REMARK  170  A    between atoms: _401  and  _402
REMARK  171  A    between atoms: _405  and  _407
REMARK  172  A    between atoms: _407  and  _408
REMARK  173  A    between atoms: _407  and  _410
REMARK  174  A    between atoms: _410  and  _411
REMARK  175  A    between atoms: _414  and  _416
REMARK  176  A    between atoms: _416  and  _417
REMARK  177  A    between atoms: _416  and  _419
REMARK  178  A    between atoms: _419  and  _420
REMARK  179  A    between atoms: _426  and  _428
REMARK  180  A    between atoms: _428  and  _429
REMARK  181  A    between atoms: _428  and  _431
REMARK  182  A    between atoms: _434  and  _436
REMARK  183  A    between atoms: _436  and  _437
REMARK  184  A    between atoms: _436  and  _439
REMARK  185  A    between atoms: _439  and  _440
REMARK  186  A    between atoms: _443  and  _445
REMARK  187  A    between atoms: _445  and  _446
REMARK  188  A    between atoms: _449  and  _451
REMARK  189  A    between atoms: _451  and  _452
REMARK  190  A    between atoms: _451  and  _454
REMARK  191  A    between atoms: _454  and  _455
REMARK  192  A    between atoms: _460  and  _462
REMARK  193  A    between atoms: _462  and  _463
REMARK  194  A    between atoms: _462  and  _465
REMARK  195  A    between atoms: _465  and  _466
REMARK  196  A    between atoms: _466  and  _467
REMARK  197  A    between atoms: _467  and  _468
REMARK  198  A    between atoms: _468  and  _469
REMARK  199  A    between atoms: _473  and  _475
REMARK  200  A    between atoms: _475  and  _476
REMARK  201  A    between atoms: _475  and  _478
REMARK  202  A    between atoms: _478  and  _479
REMARK  203  A    between atoms: _482  and  _484
REMARK  204  A    between atoms: _484  and  _485
REMARK  205  A    between atoms: _487  and  _489
REMARK  206  A    between atoms: _489  and  _490
REMARK  207  A    between atoms: _489  and  _492
REMARK  208  A    between atoms: _492  and  _493
REMARK  209  A    between atoms: _498  and  _499
REMARK  210  A    between atoms: _501  and  _503
REMARK  211  A    between atoms: _503  and  _504
REMARK  212  A    between atoms: _503  and  _506
REMARK  213  A    between atoms: _506  and  _507
REMARK  214  A    between atoms: _512  and  _513
REMARK  215  A    between atoms: _515  and  _517
REMARK  216  A    between atoms: _517  and  _518
REMARK  217  A    between atoms: _517  and  _520
REMARK  218  A    between atoms: _520  and  _521
REMARK  219  A    between atoms: _524  and  _526
REMARK  220  A    between atoms: _526  and  _527
REMARK  221  A    between atoms: _526  and  _529
REMARK  222  A    between atoms: _529  and  _530
REMARK  223  A    between atoms: _535  and  _537
REMARK  224  A    between atoms: _537  and  _538
REMARK  225  A    between atoms: _537  and  _540
REMARK  226  A    between atoms: _540  and  _541
REMARK  227  A    between atoms: _546  and  _547
REMARK                            x       y       z     vdW  Elec       q    Type
REMARK                         _______ _______ _______ _____ _____    ______ ____
ROOT
ATOM      1  CA  ASN A   5      43.590 267.582 166.123  0.00  0.00    +0.158 C 
ENDROOT
BRANCH   1   2
ATOM      2  C   ASN A   5      43.449 266.070 166.322  0.00  0.00    +0.241 C 
ATOM      3  O   ASN A   5      42.843 265.611 167.300  0.00  0.00    -0.273 OA
ATOM      4  N   LYS A   6      43.982 265.299 165.376  0.00  0.00    -0.297 N 
ATOM      5  H   LYS A   6      44.568 265.728 164.632  0.00  0.00    +0.150 HD
BRANCH   4   6
ATOM      6  CA  LYS A   6      43.751 263.859 165.374  0.00  0.00    +0.149 C 
BRANCH   6   7
ATOM      7  C   LYS A   6      44.373 263.197 166.598  0.00  0.00    +0.241 C 
ATOM      8  N   ASP A   7      45.437 263.788 167.146  0.00  0.00    -0.297 N 
ATOM      9  H   ASP A   7      45.812 264.669 166.739  0.00  0.00    +0.150 HD
ATOM     10  O   LYS A   6      43.874 262.165 167.063  0.00  0.00    -0.273 OA
BRANCH   8  11
ATOM     11  CA  ASP A   7      46.075 263.193 168.321  0.00  0.00    +0.160 C 
BRANCH  11  12
ATOM     12  C   ASP A   7      45.286 263.485 169.605  0.00  0.00    +0.241 C 
ATOM     13  O   ASP A   7      45.628 262.985 170.677  0.00  0.00    -0.273 OA
ATOM     14  N   GLY A   8      44.221 264.276 169.494  0.00  0.00    -0.295 N 
ATOM     15  H   GLY A   8      43.985 264.677 168.564  0.00  0.00    +0.150 HD
BRANCH  14  16
ATOM     16  CA  GLY A   8      43.376 264.597 170.639  0.00  0.00    +0.176 C 
BRANCH  16  17
ATOM     17  C   GLY A   8      42.059 263.824 170.771  0.00  0.00    +0.243 C 
ATOM     18  O   GLY A   8      41.387 263.898 171.814  0.00  0.00    -0.273 OA
ATOM     19  N   TYR A   9      41.696 263.065 169.735  0.00  0.00    -0.298 N 
ATOM     20  H   TYR A   9      42.356 262.940 168.941  0.00  0.00    +0.150 HD
BRANCH  19  21
ATOM     21  CA  TYR A   9      40.386 262.403 169.691  0.00  0.00    +0.141 C 
BRANCH  21  22
ATOM     22  C   TYR A   9      40.121 261.542 170.926  0.00  0.00    +0.227 C 
ATOM     23  O   TYR A   9      39.055 261.644 171.555  0.00  0.00    -0.286 OA
ENDBRANCH  21  22
BRANCH  21  24
ATOM     24  CB  TYR A   9      40.255 261.527 168.434  0.00  0.00    +0.054 C 
BRANCH  24  25
ATOM     25  CG  TYR A   9      39.909 262.246 167.141  0.00  0.00    -0.020 A 
ATOM     26  CD2 TYR A   9      40.274 263.567 166.927  0.00  0.00    -0.001 A 
ATOM     27  CE2 TYR A   9      39.974 264.210 165.729  0.00  0.00    +0.036 A 
ATOM     28  CZ  TYR A   9      39.295 263.526 164.739  0.00  0.00    +0.134 A 
ATOM     29  CE1 TYR A   9      38.915 262.218 164.931  0.00  0.00    +0.036 A 
ATOM     30  CD1 TYR A   9      39.230 261.583 166.123  0.00  0.00    -0.001 A 
BRANCH  28  31
ATOM     31  OH  TYR A   9      38.990 264.143 163.550  0.00  0.00    -0.506 OA
ATOM     32  HH  TYR A   9      39.415 263.649 162.805  0.00  0.00    +0.292 HD
ENDBRANCH  28  31
ENDBRANCH  24  25
ENDBRANCH  21  24
ENDBRANCH  19  21
ENDBRANCH  16  17
ENDBRANCH  14  16
ENDBRANCH  11  12
BRANCH  11  33
ATOM     33  CB  ASP A   7      47.550 263.656 168.459  0.00  0.00    +0.143 C 
BRANCH  33  34
ATOM     34  CG  ASP A   7      47.700 265.155 168.749  0.00  0.00    +0.367 C 
ATOM     35  OD2 ASP A   7      48.799 265.579 169.160  0.00  0.00    -0.246 OA
ATOM     36  OD1 ASP A   7      46.758 265.928 168.532  0.00  0.00    -0.246 OA
ENDBRANCH  33  34
ENDBRANCH  11  33
ENDBRANCH   8  11
ENDBRANCH   6   7
BRANCH   6  37
ATOM     37  CB  LYS A   6      44.283 263.224 164.086  0.00  0.00    +0.029 C 
BRANCH  37  38
ATOM     38  CG  LYS A   6      43.837 263.930 162.797  0.00  0.00    +0.000 C 
BRANCH  38  39
ATOM     39  CD  LYS A   6      42.314 264.044 162.668  0.00  0.00    -0.024 C 
BRANCH  39  40
ATOM     40  CE  LYS A   6      41.964 264.929 161.472  0.00  0.00    -0.086 C 
BRANCH  40  41
ATOM     41  NZ  LYS A   6      40.708 265.700 161.697  0.00  0.00    +0.380 N 
ATOM     42  HZ1 LYS A   6      40.822 266.310 162.531  0.00  0.00    -0.089 HD
ATOM     43  HZ2 LYS A   6      39.921 265.039 161.855  0.00  0.00    -0.089 HD
ATOM     44  HZ3 LYS A   6      40.508 266.286 160.862  0.00  0.00    -0.089 HD
ENDBRANCH  40  41
ENDBRANCH  39  40
ENDBRANCH  38  39
ENDBRANCH  37  38
ENDBRANCH   6  37
ENDBRANCH   4   6
ENDBRANCH   1   2
BRANCH   1  46
ATOM     45  C   ALA A   4      41.345 267.963 165.274  0.00  0.00    +0.241 C 
ATOM     46  N   ASN A   5      42.272 268.219 166.197  0.00  0.00    -0.297 N 
ATOM     47  H   ASN A   5      42.059 268.875 166.975  0.00  0.00    +0.150 HD
ATOM     48  O   ALA A   4      41.548 267.192 164.332  0.00  0.00    -0.273 OA
BRANCH  45  49
ATOM     49  CA  ALA A   4      39.983 268.661 165.426  0.00  0.00    +0.149 C 
ATOM     50  CB  ALA A   4      39.818 269.192 166.842  0.00  0.00    +0.031 C 
BRANCH  49  52
ATOM     51  C   ASP A   3      38.199 267.904 163.928  0.00  0.00    +0.241 C 
ATOM     52  N   ALA A   4      38.854 267.779 165.082  0.00  0.00    -0.297 N 
ATOM     53  H   ALA A   4      38.562 267.042 165.755  0.00  0.00    +0.150 HD
ATOM     54  O   ASP A   3      38.516 268.714 163.077  0.00  0.00    -0.273 OA
BRANCH  51  55
ATOM     55  CA  ASP A   3      37.000 266.986 163.694  0.00  0.00    +0.160 C 
BRANCH  55  57
ATOM     56  C   VAL A   2      35.705 265.574 165.154  0.00  0.00    +0.241 C 
ATOM     57  N   ASP A   3      36.293 266.743 164.937  0.00  0.00    -0.297 N 
ATOM     58  H   ASP A   3      36.247 267.488 165.661  0.00  0.00    +0.150 HD
ATOM     59  O   VAL A   2      35.815 264.622 164.381  0.00  0.00    -0.273 OA
BRANCH  56  60
ATOM     60  CA  VAL A   2      34.863 265.450 166.412  0.00  0.00    +0.148 C 
BRANCH  60  63
ATOM     61  C   PHE A   1      32.581 266.313 166.088  0.00  0.00    +0.239 C 
ATOM     62  O   PHE A   1      32.910 267.456 166.388  0.00  0.00    -0.274 OA
ATOM     63  N   VAL A   2      33.448 265.296 166.053  0.00  0.00    -0.297 N 
ATOM     64  H   VAL A   2      33.106 264.358 165.760  0.00  0.00    +0.150 HD
BRANCH  61  65
ATOM     65  CA  PHE A   1      31.130 266.021 165.713  0.00  0.00    +0.149 C 
BRANCH  65  66
ATOM     66  N   PHE A   1      30.281 266.183 166.886  0.00  0.00    -0.238 NA
ATOM     67  H   PHE A   1      30.096 267.146 167.232  0.00  0.00    +0.142 HD
ENDBRANCH  65  66
BRANCH  65  68
ATOM     68  CB  PHE A   1      30.649 266.968 164.601  0.00  0.00    +0.053 C 
BRANCH  68  69
ATOM     69  CG  PHE A   1      31.368 266.807 163.277  0.00  0.00    -0.020 A 
ATOM     70  CD2 PHE A   1      31.480 265.559 162.669  0.00  0.00    -0.004 A 
ATOM     71  CE2 PHE A   1      32.116 265.416 161.432  0.00  0.00    -0.000 A 
ATOM     72  CZ  PHE A   1      32.631 266.536 160.789  0.00  0.00    -0.000 A 
ATOM     73  CE1 PHE A   1      32.502 267.799 161.379  0.00  0.00    -0.000 A 
ATOM     74  CD1 PHE A   1      31.869 267.923 162.613  0.00  0.00    -0.004 A 
ENDBRANCH  68  69
ENDBRANCH  65  68
ENDBRANCH  61  65
ENDBRANCH  60  63
BRANCH  60  75
ATOM     75  CB  VAL A   2      35.372 264.254 167.241  0.00  0.00    +0.027 C 
ATOM     76  CG2 VAL A   2      34.466 264.036 168.415  0.00  0.00    +0.002 C 
ATOM     77  CG1 VAL A   2      36.832 264.478 167.702  0.00  0.00    +0.002 C 
ENDBRANCH  60  75
ENDBRANCH  56  60
ENDBRANCH  55  57
BRANCH  55  78
ATOM     78  CB  ASP A   3      36.028 267.589 162.667  0.00  0.00    +0.143 C 
BRANCH  78  79
ATOM     79  CG  ASP A   3      36.574 267.592 161.236  0.00  0.00    +0.367 C 
ATOM     80  OD2 ASP A   3      37.520 266.839 160.927  0.00  0.00    -0.246 OA
ATOM     81  OD1 ASP A   3      36.050 268.375 160.414  0.00  0.00    -0.246 OA
ENDBRANCH  78  79
ENDBRANCH  55  78
ENDBRANCH  51  55
ENDBRANCH  49  52
ENDBRANCH  45  49
ENDBRANCH   1  46
BRANCH   1  82
ATOM     82  CB  ASN A   5      44.559 268.181 167.153  0.00  0.00    +0.114 C 
BRANCH  82  83
ATOM     83  CG  ASN A   5      43.961 268.248 168.539  0.00  0.00    +0.222 C 
ATOM     84  ND2 ASN A   5      44.714 267.783 169.537  0.00  0.00    -0.329 N 
ATOM     85 HD21 ASN A   5      44.350 267.792 170.511  0.00  0.00    +0.145 HD
ATOM     86 HD22 ASN A   5      45.665 267.412 169.341  0.00  0.00    +0.145 HD
ATOM     87  OD1 ASN A   5      42.826 268.700 168.712  0.00  0.00    -0.275 OA
ENDBRANCH  82  83
ENDBRANCH   1  82
TORSDOF 35
REMARK  Name = ../refined-set-2016/4ymh/4ymh_pocket.pdb
REMARK  227 active torsions:
REMARK  status: ('A' for Active; 'I' for Inactive)
REMARK    1  A    between atoms: _1  and  _3
REMARK    2  A    between atoms: _3  and  _4
REMARK    3  A    between atoms: _3  and  _6
REMARK    4  A    between atoms: _6  and  _7
REMARK    5  A    between atoms: _12  and  _14
REMARK    6  A    between atoms: _14  and  _15
REMARK    7  A    between atoms: _14  and  _17
REMARK    8  A    between atoms: _17  and  _18
REMARK    9  A    between atoms: _28  and  _30
REMARK   10  A    between atoms: _30  and  _31
REMARK   11  A    between atoms: _30  and  _33
REMARK   12  A    between atoms: _33  and  _34
REMARK   13  A    between atoms: _37  and  _39
REMARK   14  A    between atoms: _39  and  _40
REMARK   15  A    between atoms: _39  and  _42
REMARK   16  A    between atoms: _42  and  _43
REMARK   17  A    between atoms: _46  and  _48
REMARK   18  A    between atoms: _48  and  _49
REMARK   19  A    between atoms: _52  and  _54
REMARK   20  A    between atoms: _54  and  _55
REMARK   21  A    between atoms: _54  and  _57
REMARK   22  A    between atoms: _57  and  _58
REMARK   23  A    between atoms: _61  and  _63
REMARK   24  A    between atoms: _63  and  _64
REMARK   25  A    between atoms: _63  and  _66
REMARK   26  A    between atoms: _66  and  _67
REMARK   27  A    between atoms: _67  and  _68
REMARK   28  A    between atoms: _68  and  _69
REMARK   29  A    between atoms: _69  and  _70
REMARK   30  A    between atoms: _74  and  _76
REMARK   31  A    between atoms: _76  and  _77
REMARK   32  A    between atoms: _76  and  _79
REMARK   33  A    between atoms: _79  and  _80
REMARK   34  A    between atoms: _80  and  _81
REMARK   35  A    between atoms: _83  and  _85
REMARK   36  A    between atoms: _85  and  _86
REMARK   37  A    between atoms: _85  and  _88
REMARK   38  A    between atoms: _88  and  _89
REMARK   39  A    between atoms: _91  and  _93
REMARK   40  A    between atoms: _93  and  _94
REMARK   41  A    between atoms: _93  and  _96
REMARK   42  A    between atoms: _96  and  _97
REMARK   43  A    between atoms: _99  and  _101
REMARK   44  A    between atoms: _101  and  _102
REMARK   45  A    between atoms: _101  and  _104
REMARK   46  A    between atoms: _104  and  _105
REMARK   47  A    between atoms: _105  and  _106
REMARK   48  A    between atoms: _111  and  _113
REMARK   49  A    between atoms: _113  and  _114
REMARK   50  A    between atoms: _116  and  _118
REMARK   51  A    between atoms: _118  and  _119
REMARK   52  A    between atoms: _118  and  _121
REMARK   53  A    between atoms: _121  and  _122
REMARK   54  A    between atoms: _122  and  _123
REMARK   55  A    between atoms: _125  and  _127
REMARK   56  A    between atoms: _127  and  _128
REMARK   57  A    between atoms: _127  and  _130
REMARK   58  A    between atoms: _130  and  _131
REMARK   59  A    between atoms: _131  and  _132
REMARK   60  A    between atoms: _135  and  _137
REMARK   61  A    between atoms: _137  and  _138
REMARK   62  A    between atoms: _137  and  _140
REMARK   63  A    between atoms: _140  and  _141
REMARK   64  A    between atoms: _144  and  _146
REMARK   65  A    between atoms: _146  and  _147
REMARK   66  A    between atoms: _149  and  _151
REMARK   67  A    between atoms: _151  and  _152
REMARK   68  A    between atoms: _151  and  _154
REMARK   69  A    between atoms: _156  and  _158
REMARK   70  A    between atoms: _158  and  _159
REMARK   71  A    between atoms: _158  and  _161
REMARK   72  A    between atoms: _161  and  _162
REMARK   73  A    between atoms: _167  and  _168
REMARK   74  A    between atoms: _170  and  _172
REMARK   75  A    between atoms: _172  and  _173
REMARK   76  A    between atoms: _172  and  _175
REMARK   77  A    between atoms: _175  and  _176
REMARK   78  A    between atoms: _178  and  _180
REMARK   79  A    between atoms: _180  and  _181
REMARK   80  A    between atoms: _183  and  _185
REMARK   81  A    between atoms: _185  and  _186
REMARK   82  A    between atoms: _185  and  _188
REMARK   83  A    between atoms: _188  and  _189
REMARK   84  A    between atoms: _194  and  _195
REMARK   85  A    between atoms: _197  and  _199
REMARK   86  A    between atoms: _199  and  _200
REMARK   87  A    between atoms: _199  and  _202
REMARK   88  A    between atoms: _202  and  _203
REMARK   89  A    between atoms: _205  and  _207
REMARK   90  A    between atoms: _207  and  _208
REMARK   91  A    between atoms: _211  and  _213
REMARK   92  A    between atoms: _213  and  _214
REMARK   93  A    between atoms: _213  and  _216
REMARK   94  A    between atoms: _216  and  _217
REMARK   95  A    between atoms: _220  and  _222
REMARK   96  A    between atoms: _222  and  _223
REMARK   97  A    between atoms: _226  and  _228
REMARK   98  A    between atoms: _228  and  _229
REMARK   99  A    between atoms: _228  and  _231
REMARK  100  A    between atoms: _231  and  _232
REMARK  101  A    between atoms: _242  and  _244
REMARK  102  A    between atoms: _244  and  _245
REMARK  103  A    between atoms: _244  and  _247
REMARK  104  A    between atoms: _247  and  _248
REMARK  105  A    between atoms: _251  and  _253
REMARK  106  A    between atoms: _253  and  _254
REMARK  107  A    between atoms: _253  and  _256
REMARK  108  A    between atoms: _256  and  _257
REMARK  109  A    between atoms: _260  and  _262
REMARK  110  A    between atoms: _262  and  _263
REMARK  111  A    between atoms: _262  and  _265
REMARK  112  A    between atoms: _265  and  _266
REMARK  113  A    between atoms: _266  and  _267
REMARK  114  A    between atoms: _270  and  _272
REMARK  115  A    between atoms: _272  and  _273
REMARK  116  A    between atoms: _272  and  _275
REMARK  117  A    between atoms: _275  and  _276
REMARK  118  A    between atoms: _281  and  _282
REMARK  119  A    between atoms: _284  and  _286
REMARK  120  A    between atoms: _286  and  _287
REMARK  121  A    between atoms: _286  and  _289
REMARK  122  A    between atoms: _289  and  _290
REMARK  123  A    between atoms: _293  and  _294
REMARK  124  A    between atoms: _299  and  _301
REMARK  125  A    between atoms: _301  and  _302
REMARK  126  A    between atoms: _301  and  _304
REMARK  127  A    between atoms: _304  and  _305
REMARK  128  A    between atoms: _305  and  _306
REMARK  129  A    between atoms: _306  and  _307
REMARK  130  A    between atoms: _307  and  _308
REMARK  131  A    between atoms: _312  and  _314
REMARK  132  A    between atoms: _314  and  _315
REMARK  133  A    between atoms: _314  and  _317
REMARK  134  A    between atoms: _317  and  _318
REMARK  135  A    between atoms: _318  and  _319
REMARK  136  A    between atoms: _321  and  _323
REMARK  137  A    between atoms: _323  and  _324
REMARK  138  A    between atoms: _323  and  _326
REMARK  139  A    between atoms: _326  and  _327
REMARK  140  A    between atoms: _330  and  _332
REMARK  141  A    between atoms: _332  and  _333
REMARK  142  A    between atoms: _332  and  _335
REMARK  143  A    between atoms: _335  and  _336
REMARK  144  A    between atoms: _338  and  _340
REMARK  145  A    between atoms: _340  and  _341
REMARK  146  A    between atoms: _340  and  _343
REMARK  147  A    between atoms: _343  and  _344
REMARK  148  A    between atoms: _347  and  _349
REMARK  149  A    between atoms: _349  and  _350
REMARK  150  A    between atoms: _349  and  _352
REMARK  151  A    between atoms: _352  and  _353
REMARK  152  A    between atoms: _353  and  _354
REMARK  153  A    between atoms: _357  and  _359
REMARK  154  A    between atoms: _359  and  _360
REMARK  155  A    between atoms: _363  and  _364
REMARK  156  A    between atoms: _369  and  _371
REMARK  157  A    between atoms: _371  and  _372
REMARK  158  A    between atoms: _375  and  _377
REMARK  159  A    between atoms: _377  and  _378
REMARK  160  A    between atoms: _377  and  _380
REMARK  161  A    between atoms: _380  and  _381
REMARK  162  A    between atoms: _381  and  _382
REMARK  163  A    between atoms: _385  and  _387
REMARK  164  A    between atoms: _387  and  _388
REMARK  165  A    between atoms: _387  and  _390
REMARK  166  A    between atoms: _390  and  _391
REMARK  167  A    between atoms: _396  and  _398
REMARK  168  A    between atoms: _398  and  _399
REMARK  169  A    between atoms: _398  and  _401
REMARK  170  A    between atoms: _401  and  _402
REMARK  171  A    between atoms: _405  and  _407
REMARK  172  A    between atoms: _407  and  _408
REMARK  173  A    between atoms: _407  and  _410
REMARK  174  A    between atoms: _410  and  _411
REMARK  175  A    between atoms: _414  and  _416
REMARK  176  A    between atoms: _416  and  _417
REMARK  177  A    between atoms: _416  and  _419
REMARK  178  A    between atoms: _419  and  _420
REMARK  179  A    between atoms: _426  and  _428
REMARK  180  A    between atoms: _428  and  _429
REMARK  181  A    between atoms: _428  and  _431
REMARK  182  A    between atoms: _434  and  _436
REMARK  183  A    between atoms: _436  and  _437
REMARK  184  A    between atoms: _436  and  _439
REMARK  185  A    between atoms: _439  and  _440
REMARK  186  A    between atoms: _443  and  _445
REMARK  187  A    between atoms: _445  and  _446
REMARK  188  A    between atoms: _449  and  _451
REMARK  189  A    between atoms: _451  and  _452
REMARK  190  A    between atoms: _451  and  _454
REMARK  191  A    between atoms: _454  and  _455
REMARK  192  A    between atoms: _460  and  _462
REMARK  193  A    between atoms: _462  and  _463
REMARK  194  A    between atoms: _462  and  _465
REMARK  195  A    between atoms: _465  and  _466
REMARK  196  A    between atoms: _466  and  _467
REMARK  197  A    between atoms: _467  and  _468
REMARK  198  A    between atoms: _468  and  _469
REMARK  199  A    between atoms: _473  and  _475
REMARK  200  A    between atoms: _475  and  _476
REMARK  201  A    between atoms: _475  and  _478
REMARK  202  A    between atoms: _478  and  _479
REMARK  203  A    between atoms: _482  and  _484
REMARK  204  A    between atoms: _484  and  _485
REMARK  205  A    between atoms: _487  and  _489
REMARK  206  A    between atoms: _489  and  _490
REMARK  207  A    between atoms: _489  and  _492
REMARK  208  A    between atoms: _492  and  _493
REMARK  209  A    between atoms: _498  and  _499
REMARK  210  A    between atoms: _501  and  _503
REMARK  211  A    between atoms: _503  and  _504
REMARK  212  A    between atoms: _503  and  _506
REMARK  213  A    between atoms: _506  and  _507
REMARK  214  A    between atoms: _512  and  _513
REMARK  215  A    between atoms: _515  and  _517
REMARK  216  A    between atoms: _517  and  _518
REMARK  217  A    between atoms: _517  and  _520
REMARK  218  A    between atoms: _520  and  _521
REMARK  219  A    between atoms: _524  and  _526
REMARK  220  A    between atoms: _526  and  _527
REMARK  221  A    between atoms: _526  and  _529
REMARK  222  A    between atoms: _529  and  _530
REMARK  223  A    between atoms: _535  and  _537
REMARK  224  A    between atoms: _537  and  _538
REMARK  225  A    between atoms: _537  and  _540
REMARK  226  A    between atoms: _540  and  _541
REMARK  227  A    between atoms: _546  and  _547
REMARK                            x       y       z     vdW  Elec       q    Type
REMARK                         _______ _______ _______ _____ _____    ______ ____
ROOT
ATOM      1  CG  TYR A   1      38.793 265.921 171.957  0.00  0.00    -0.020 A 
ATOM      2  CD2 TYR A   1      39.172 266.882 172.893  0.00  0.00    -0.001 A 
ATOM      3  CE2 TYR A   1      40.042 267.912 172.562  0.00  0.00    +0.036 A 
ATOM      4  CZ  TYR A   1      40.561 267.982 171.284  0.00  0.00    +0.134 A 
ATOM      5  CE1 TYR A   1      40.204 267.042 170.332  0.00  0.00    +0.036 A 
ATOM      6  CD1 TYR A   1      39.322 266.011 170.675  0.00  0.00    -0.001 A 
ENDROOT
BRANCH   4   7
ATOM      7  OH  TYR A   1      41.429 269.010 170.964  0.00  0.00    -0.506 OA
ATOM      8  HH  TYR A   1      42.295 268.630 170.672  0.00  0.00    +0.292 HD
ENDBRANCH   4   7
BRANCH   1   9
ATOM      9  CB  TYR A   1      37.844 264.809 172.330  0.00  0.00    +0.051 C 
BRANCH   9  10
ATOM     10  CA  TYR A   1      38.058 264.267 173.741  0.00  0.00    +0.137 C 
BRANCH  10  11
ATOM     11  N   TYR A   1      39.359 263.618 173.862  0.00  0.00    -0.239 NA
ATOM     12  H   TYR A   1      39.976 263.530 173.029  0.00  0.00    +0.142 HD
ENDBRANCH  10  11
BRANCH  10  13
ATOM     13  C   TYR A   1      36.953 263.276 174.106  0.00  0.00    +0.224 C 
ATOM     14  O   TYR A   1      36.067 263.579 174.931  0.00  0.00    -0.287 OA
ENDBRANCH  10  13
ENDBRANCH   9  10
ENDBRANCH   1   9
TORSDOF 5
REMARK  Name = ../refined-set-2016/4ymh/4ymh_pocket.pdb
REMARK  227 active torsions:
REMARK  status: ('A' for Active; 'I' for Inactive)
REMARK    1  A    between atoms: _1  and  _3
REMARK    2  A    between atoms: _3  and  _4
REMARK    3  A    between atoms: _3  and  _6
REMARK    4  A    between atoms: _6  and  _7
REMARK    5  A    between atoms: _12  and  _14
REMARK    6  A    between atoms: _14  and  _15
REMARK    7  A    between atoms: _14  and  _17
REMARK    8  A    between atoms: _17  and  _18
REMARK    9  A    between atoms: _28  and  _30
REMARK   10  A    between atoms: _30  and  _31
REMARK   11  A    between atoms: _30  and  _33
REMARK   12  A    between atoms: _33  and  _34
REMARK   13  A    between atoms: _37  and  _39
REMARK   14  A    between atoms: _39  and  _40
REMARK   15  A    between atoms: _39  and  _42
REMARK   16  A    between atoms: _42  and  _43
REMARK   17  A    between atoms: _46  and  _48
REMARK   18  A    between atoms: _48  and  _49
REMARK   19  A    between atoms: _52  and  _54
REMARK   20  A    between atoms: _54  and  _55
REMARK   21  A    between atoms: _54  and  _57
REMARK   22  A    between atoms: _57  and  _58
REMARK   23  A    between atoms: _61  and  _63
REMARK   24  A    between atoms: _63  and  _64
REMARK   25  A    between atoms: _63  and  _66
REMARK   26  A    between atoms: _66  and  _67
REMARK   27  A    between atoms: _67  and  _68
REMARK   28  A    between atoms: _68  and  _69
REMARK   29  A    between atoms: _69  and  _70
REMARK   30  A    between atoms: _74  and  _76
REMARK   31  A    between atoms: _76  and  _77
REMARK   32  A    between atoms: _76  and  _79
REMARK   33  A    between atoms: _79  and  _80
REMARK   34  A    between atoms: _80  and  _81
REMARK   35  A    between atoms: _83  and  _85
REMARK   36  A    between atoms: _85  and  _86
REMARK   37  A    between atoms: _85  and  _88
REMARK   38  A    between atoms: _88  and  _89
REMARK   39  A    between atoms: _91  and  _93
REMARK   40  A    between atoms: _93  and  _94
REMARK   41  A    between atoms: _93  and  _96
REMARK   42  A    between atoms: _96  and  _97
REMARK   43  A    between atoms: _99  and  _101
REMARK   44  A    between atoms: _101  and  _102
REMARK   45  A    between atoms: _101  and  _104
REMARK   46  A    between atoms: _104  and  _105
REMARK   47  A    between atoms: _105  and  _106
REMARK   48  A    between atoms: _111  and  _113
REMARK   49  A    between atoms: _113  and  _114
REMARK   50  A    between atoms: _116  and  _118
REMARK   51  A    between atoms: _118  and  _119
REMARK   52  A    between atoms: _118  and  _121
REMARK   53  A    between atoms: _121  and  _122
REMARK   54  A    between atoms: _122  and  _123
REMARK   55  A    between atoms: _125  and  _127
REMARK   56  A    between atoms: _127  and  _128
REMARK   57  A    between atoms: _127  and  _130
REMARK   58  A    between atoms: _130  and  _131
REMARK   59  A    between atoms: _131  and  _132
REMARK   60  A    between atoms: _135  and  _137
REMARK   61  A    between atoms: _137  and  _138
REMARK   62  A    between atoms: _137  and  _140
REMARK   63  A    between atoms: _140  and  _141
REMARK   64  A    between atoms: _144  and  _146
REMARK   65  A    between atoms: _146  and  _147
REMARK   66  A    between atoms: _149  and  _151
REMARK   67  A    between atoms: _151  and  _152
REMARK   68  A    between atoms: _151  and  _154
REMARK   69  A    between atoms: _156  and  _158
REMARK   70  A    between atoms: _158  and  _159
REMARK   71  A    between atoms: _158  and  _161
REMARK   72  A    between atoms: _161  and  _162
REMARK   73  A    between atoms: _167  and  _168
REMARK   74  A    between atoms: _170  and  _172
REMARK   75  A    between atoms: _172  and  _173
REMARK   76  A    between atoms: _172  and  _175
REMARK   77  A    between atoms: _175  and  _176
REMARK   78  A    between atoms: _178  and  _180
REMARK   79  A    between atoms: _180  and  _181
REMARK   80  A    between atoms: _183  and  _185
REMARK   81  A    between atoms: _185  and  _186
REMARK   82  A    between atoms: _185  and  _188
REMARK   83  A    between atoms: _188  and  _189
REMARK   84  A    between atoms: _194  and  _195
REMARK   85  A    between atoms: _197  and  _199
REMARK   86  A    between atoms: _199  and  _200
REMARK   87  A    between atoms: _199  and  _202
REMARK   88  A    between atoms: _202  and  _203
REMARK   89  A    between atoms: _205  and  _207
REMARK   90  A    between atoms: _207  and  _208
REMARK   91  A    between atoms: _211  and  _213
REMARK   92  A    between atoms: _213  and  _214
REMARK   93  A    between atoms: _213  and  _216
REMARK   94  A    between atoms: _216  and  _217
REMARK   95  A    between atoms: _220  and  _222
REMARK   96  A    between atoms: _222  and  _223
REMARK   97  A    between atoms: _226  and  _228
REMARK   98  A    between atoms: _228  and  _229
REMARK   99  A    between atoms: _228  and  _231
REMARK  100  A    between atoms: _231  and  _232
REMARK  101  A    between atoms: _242  and  _244
REMARK  102  A    between atoms: _244  and  _245
REMARK  103  A    between atoms: _244  and  _247
REMARK  104  A    between atoms: _247  and  _248
REMARK  105  A    between atoms: _251  and  _253
REMARK  106  A    between atoms: _253  and  _254
REMARK  107  A    between atoms: _253  and  _256
REMARK  108  A    between atoms: _256  and  _257
REMARK  109  A    between atoms: _260  and  _262
REMARK  110  A    between atoms: _262  and  _263
REMARK  111  A    between atoms: _262  and  _265
REMARK  112  A    between atoms: _265  and  _266
REMARK  113  A    between atoms: _266  and  _267
REMARK  114  A    between atoms: _270  and  _272
REMARK  115  A    between atoms: _272  and  _273
REMARK  116  A    between atoms: _272  and  _275
REMARK  117  A    between atoms: _275  and  _276
REMARK  118  A    between atoms: _281  and  _282
REMARK  119  A    between atoms: _284  and  _286
REMARK  120  A    between atoms: _286  and  _287
REMARK  121  A    between atoms: _286  and  _289
REMARK  122  A    between atoms: _289  and  _290
REMARK  123  A    between atoms: _293  and  _294
REMARK  124  A    between atoms: _299  and  _301
REMARK  125  A    between atoms: _301  and  _302
REMARK  126  A    between atoms: _301  and  _304
REMARK  127  A    between atoms: _304  and  _305
REMARK  128  A    between atoms: _305  and  _306
REMARK  129  A    between atoms: _306  and  _307
REMARK  130  A    between atoms: _307  and  _308
REMARK  131  A    between atoms: _312  and  _314
REMARK  132  A    between atoms: _314  and  _315
REMARK  133  A    between atoms: _314  and  _317
REMARK  134  A    between atoms: _317  and  _318
REMARK  135  A    between atoms: _318  and  _319
REMARK  136  A    between atoms: _321  and  _323
REMARK  137  A    between atoms: _323  and  _324
REMARK  138  A    between atoms: _323  and  _326
REMARK  139  A    between atoms: _326  and  _327
REMARK  140  A    between atoms: _330  and  _332
REMARK  141  A    between atoms: _332  and  _333
REMARK  142  A    between atoms: _332  and  _335
REMARK  143  A    between atoms: _335  and  _336
REMARK  144  A    between atoms: _338  and  _340
REMARK  145  A    between atoms: _340  and  _341
REMARK  146  A    between atoms: _340  and  _343
REMARK  147  A    between atoms: _343  and  _344
REMARK  148  A    between atoms: _347  and  _349
REMARK  149  A    between atoms: _349  and  _350
REMARK  150  A    between atoms: _349  and  _352
REMARK  151  A    between atoms: _352  and  _353
REMARK  152  A    between atoms: _353  and  _354
REMARK  153  A    between atoms: _357  and  _359
REMARK  154  A    between atoms: _359  and  _360
REMARK  155  A    between atoms: _363  and  _364
REMARK  156  A    between atoms: _369  and  _371
REMARK  157  A    between atoms: _371  and  _372
REMARK  158  A    between atoms: _375  and  _377
REMARK  159  A    between atoms: _377  and  _378
REMARK  160  A    between atoms: _377  and  _380
REMARK  161  A    between atoms: _380  and  _381
REMARK  162  A    between atoms: _381  and  _382
REMARK  163  A    between atoms: _385  and  _387
REMARK  164  A    between atoms: _387  and  _388
REMARK  165  A    between atoms: _387  and  _390
REMARK  166  A    between atoms: _390  and  _391
REMARK  167  A    between atoms: _396  and  _398
REMARK  168  A    between atoms: _398  and  _399
REMARK  169  A    between atoms: _398  and  _401
REMARK  170  A    between atoms: _401  and  _402
REMARK  171  A    between atoms: _405  and  _407
REMARK  172  A    between atoms: _407  and  _408
REMARK  173  A    between atoms: _407  and  _410
REMARK  174  A    between atoms: _410  and  _411
REMARK  175  A    between atoms: _414  and  _416
REMARK  176  A    between atoms: _416  and  _417
REMARK  177  A    between atoms: _416  and  _419
REMARK  178  A    between atoms: _419  and  _420
REMARK  179  A    between atoms: _426  and  _428
REMARK  180  A    between atoms: _428  and  _429
REMARK  181  A    between atoms: _428  and  _431
REMARK  182  A    between atoms: _434  and  _436
REMARK  183  A    between atoms: _436  and  _437
REMARK  184  A    between atoms: _436  and  _439
REMARK  185  A    between atoms: _439  and  _440
REMARK  186  A    between atoms: _443  and  _445
REMARK  187  A    between atoms: _445  and  _446
REMARK  188  A    between atoms: _449  and  _451
REMARK  189  A    between atoms: _451  and  _452
REMARK  190  A    between atoms: _451  and  _454
REMARK  191  A    between atoms: _454  and  _455
REMARK  192  A    between atoms: _460  and  _462
REMARK  193  A    between atoms: _462  and  _463
REMARK  194  A    between atoms: _462  and  _465
REMARK  195  A    between atoms: _465  and  _466
REMARK  196  A    between atoms: _466  and  _467
REMARK  197  A    between atoms: _467  and  _468
REMARK  198  A    between atoms: _468  and  _469
REMARK  199  A    between atoms: _473  and  _475
REMARK  200  A    between atoms: _475  and  _476
REMARK  201  A    between atoms: _475  and  _478
REMARK  202  A    between atoms: _478  and  _479
REMARK  203  A    between atoms: _482  and  _484
REMARK  204  A    between atoms: _484  and  _485
REMARK  205  A    between atoms: _487  and  _489
REMARK  206  A    between atoms: _489  and  _490
REMARK  207  A    between atoms: _489  and  _492
REMARK  208  A    between atoms: _492  and  _493
REMARK  209  A    between atoms: _498  and  _499
REMARK  210  A    between atoms: _501  and  _503
REMARK  211  A    between atoms: _503  and  _504
REMARK  212  A    between atoms: _503  and  _506
REMARK  213  A    between atoms: _506  and  _507
REMARK  214  A    between atoms: _512  and  _513
REMARK  215  A    between atoms: _515  and  _517
REMARK  216  A    between atoms: _517  and  _518
REMARK  217  A    between atoms: _517  and  _520
REMARK  218  A    between atoms: _520  and  _521
REMARK  219  A    between atoms: _524  and  _526
REMARK  220  A    between atoms: _526  and  _527
REMARK  221  A    between atoms: _526  and  _529
REMARK  222  A    between atoms: _529  and  _530
REMARK  223  A    between atoms: _535  and  _537
REMARK  224  A    between atoms: _537  and  _538
REMARK  225  A    between atoms: _537  and  _540
REMARK  226  A    between atoms: _540  and  _541
REMARK  227  A    between atoms: _546  and  _547
REMARK                            x       y       z     vdW  Elec       q    Type
REMARK                         _______ _______ _______ _____ _____    ______ ____
ROOT
ATOM      1  C   ASP A   1      37.345 262.219 160.785  0.00  0.00    +0.239 C 
ATOM      2  O   ASP A   1      38.192 262.372 161.667  0.00  0.00    -0.274 OA
ATOM      3  N   ASN A   2      37.653 261.843 159.542  0.00  0.00    -0.298 N 
ATOM      4  H   ASN A   2      36.883 261.721 158.854  0.00  0.00    +0.150 HD
ENDROOT
BRANCH   1   5
ATOM      5  CA  ASP A   1      35.855 262.476 161.074  0.00  0.00    +0.156 C 
BRANCH   5   6
ATOM      6  N   ASP A   1      35.510 262.331 162.488  0.00  0.00    -0.238 NA
ATOM      7  H   ASP A   1      35.668 263.138 163.124  0.00  0.00    +0.142 HD
ENDBRANCH   5   6
BRANCH   5   8
ATOM      8  CB  ASP A   1      35.460 263.880 160.613  0.00  0.00    +0.140 C 
BRANCH   8   9
ATOM      9  CG  ASP A   1      35.205 263.959 159.135  0.00  0.00    +0.367 C 
ATOM     10  OD2 ASP A   1      35.389 265.051 158.558  0.00  0.00    -0.246 OA
ATOM     11  OD1 ASP A   1      34.812 262.932 158.549  0.00  0.00    -0.246 OA
ENDBRANCH   8   9
ENDBRANCH   5   8
ENDBRANCH   1   5
BRANCH   3  12
ATOM     12  CA  ASN A   2      39.031 261.595 159.105  0.00  0.00    +0.146 C 
BRANCH  12  13
ATOM     13  C   ASN A   2      39.769 260.500 159.852  0.00  0.00    +0.227 C 
ATOM     14  O   ASN A   2      40.999 260.531 159.930  0.00  0.00    -0.286 OA
ENDBRANCH  12  13
BRANCH  12  15
ATOM     15  CB  ASN A   2      39.867 262.878 159.223  0.00  0.00    +0.112 C 
BRANCH  15  16
ATOM     16  CG  ASN A   2      39.359 263.979 158.335  0.00  0.00    +0.222 C 
ATOM     17  OD1 ASN A   2      38.874 265.010 158.812  0.00  0.00    -0.275 OA
ATOM     18  ND2 ASN A   2      39.465 263.773 157.029  0.00  0.00    -0.329 N 
ATOM     19 HD21 ASN A   2      39.881 262.888 156.674  0.00  0.00    +0.145 HD
ATOM     20 HD22 ASN A   2      39.132 264.496 156.360  0.00  0.00    +0.145 HD
ENDBRANCH  15  16
ENDBRANCH  12  15
ENDBRANCH   3  12
TORSDOF 8
REMARK  Name = ../refined-set-2016/4ymh/4ymh_pocket.pdb
REMARK  227 active torsions:
REMARK  status: ('A' for Active; 'I' for Inactive)
REMARK    1  A    between atoms: _1  and  _3
REMARK    2  A    between atoms: _3  and  _4
REMARK    3  A    between atoms: _3  and  _6
REMARK    4  A    between atoms: _6  and  _7
REMARK    5  A    between atoms: _12  and  _14
REMARK    6  A    between atoms: _14  and  _15
REMARK    7  A    between atoms: _14  and  _17
REMARK    8  A    between atoms: _17  and  _18
REMARK    9  A    between atoms: _28  and  _30
REMARK   10  A    between atoms: _30  and  _31
REMARK   11  A    between atoms: _30  and  _33
REMARK   12  A    between atoms: _33  and  _34
REMARK   13  A    between atoms: _37  and  _39
REMARK   14  A    between atoms: _39  and  _40
REMARK   15  A    between atoms: _39  and  _42
REMARK   16  A    between atoms: _42  and  _43
REMARK   17  A    between atoms: _46  and  _48
REMARK   18  A    between atoms: _48  and  _49
REMARK   19  A    between atoms: _52  and  _54
REMARK   20  A    between atoms: _54  and  _55
REMARK   21  A    between atoms: _54  and  _57
REMARK   22  A    between atoms: _57  and  _58
REMARK   23  A    between atoms: _61  and  _63
REMARK   24  A    between atoms: _63  and  _64
REMARK   25  A    between atoms: _63  and  _66
REMARK   26  A    between atoms: _66  and  _67
REMARK   27  A    between atoms: _67  and  _68
REMARK   28  A    between atoms: _68  and  _69
REMARK   29  A    between atoms: _69  and  _70
REMARK   30  A    between atoms: _74  and  _76
REMARK   31  A    between atoms: _76  and  _77
REMARK   32  A    between atoms: _76  and  _79
REMARK   33  A    between atoms: _79  and  _80
REMARK   34  A    between atoms: _80  and  _81
REMARK   35  A    between atoms: _83  and  _85
REMARK   36  A    between atoms: _85  and  _86
REMARK   37  A    between atoms: _85  and  _88
REMARK   38  A    between atoms: _88  and  _89
REMARK   39  A    between atoms: _91  and  _93
REMARK   40  A    between atoms: _93  and  _94
REMARK   41  A    between atoms: _93  and  _96
REMARK   42  A    between atoms: _96  and  _97
REMARK   43  A    between atoms: _99  and  _101
REMARK   44  A    between atoms: _101  and  _102
REMARK   45  A    between atoms: _101  and  _104
REMARK   46  A    between atoms: _104  and  _105
REMARK   47  A    between atoms: _105  and  _106
REMARK   48  A    between atoms: _111  and  _113
REMARK   49  A    between atoms: _113  and  _114
REMARK   50  A    between atoms: _116  and  _118
REMARK   51  A    between atoms: _118  and  _119
REMARK   52  A    between atoms: _118  and  _121
REMARK   53  A    between atoms: _121  and  _122
REMARK   54  A    between atoms: _122  and  _123
REMARK   55  A    between atoms: _125  and  _127
REMARK   56  A    between atoms: _127  and  _128
REMARK   57  A    between atoms: _127  and  _130
REMARK   58  A    between atoms: _130  and  _131
REMARK   59  A    between atoms: _131  and  _132
REMARK   60  A    between atoms: _135  and  _137
REMARK   61  A    between atoms: _137  and  _138
REMARK   62  A    between atoms: _137  and  _140
REMARK   63  A    between atoms: _140  and  _141
REMARK   64  A    between atoms: _144  and  _146
REMARK   65  A    between atoms: _146  and  _147
REMARK   66  A    between atoms: _149  and  _151
REMARK   67  A    between atoms: _151  and  _152
REMARK   68  A    between atoms: _151  and  _154
REMARK   69  A    between atoms: _156  and  _158
REMARK   70  A    between atoms: _158  and  _159
REMARK   71  A    between atoms: _158  and  _161
REMARK   72  A    between atoms: _161  and  _162
REMARK   73  A    between atoms: _167  and  _168
REMARK   74  A    between atoms: _170  and  _172
REMARK   75  A    between atoms: _172  and  _173
REMARK   76  A    between atoms: _172  and  _175
REMARK   77  A    between atoms: _175  and  _176
REMARK   78  A    between atoms: _178  and  _180
REMARK   79  A    between atoms: _180  and  _181
REMARK   80  A    between atoms: _183  and  _185
REMARK   81  A    between atoms: _185  and  _186
REMARK   82  A    between atoms: _185  and  _188
REMARK   83  A    between atoms: _188  and  _189
REMARK   84  A    between atoms: _194  and  _195
REMARK   85  A    between atoms: _197  and  _199
REMARK   86  A    between atoms: _199  and  _200
REMARK   87  A    between atoms: _199  and  _202
REMARK   88  A    between atoms: _202  and  _203
REMARK   89  A    between atoms: _205  and  _207
REMARK   90  A    between atoms: _207  and  _208
REMARK   91  A    between atoms: _211  and  _213
REMARK   92  A    between atoms: _213  and  _214
REMARK   93  A    between atoms: _213  and  _216
REMARK   94  A    between atoms: _216  and  _217
REMARK   95  A    between atoms: _220  and  _222
REMARK   96  A    between atoms: _222  and  _223
REMARK   97  A    between atoms: _226  and  _228
REMARK   98  A    between atoms: _228  and  _229
REMARK   99  A    between atoms: _228  and  _231
REMARK  100  A    between atoms: _231  and  _232
REMARK  101  A    between atoms: _242  and  _244
REMARK  102  A    between atoms: _244  and  _245
REMARK  103  A    between atoms: _244  and  _247
REMARK  104  A    between atoms: _247  and  _248
REMARK  105  A    between atoms: _251  and  _253
REMARK  106  A    between atoms: _253  and  _254
REMARK  107  A    between atoms: _253  and  _256
REMARK  108  A    between atoms: _256  and  _257
REMARK  109  A    between atoms: _260  and  _262
REMARK  110  A    between atoms: _262  and  _263
REMARK  111  A    between atoms: _262  and  _265
REMARK  112  A    between atoms: _265  and  _266
REMARK  113  A    between atoms: _266  and  _267
REMARK  114  A    between atoms: _270  and  _272
REMARK  115  A    between atoms: _272  and  _273
REMARK  116  A    between atoms: _272  and  _275
REMARK  117  A    between atoms: _275  and  _276
REMARK  118  A    between atoms: _281  and  _282
REMARK  119  A    between atoms: _284  and  _286
REMARK  120  A    between atoms: _286  and  _287
REMARK  121  A    between atoms: _286  and  _289
REMARK  122  A    between atoms: _289  and  _290
REMARK  123  A    between atoms: _293  and  _294
REMARK  124  A    between atoms: _299  and  _301
REMARK  125  A    between atoms: _301  and  _302
REMARK  126  A    between atoms: _301  and  _304
REMARK  127  A    between atoms: _304  and  _305
REMARK  128  A    between atoms: _305  and  _306
REMARK  129  A    between atoms: _306  and  _307
REMARK  130  A    between atoms: _307  and  _308
REMARK  131  A    between atoms: _312  and  _314
REMARK  132  A    between atoms: _314  and  _315
REMARK  133  A    between atoms: _314  and  _317
REMARK  134  A    between atoms: _317  and  _318
REMARK  135  A    between atoms: _318  and  _319
REMARK  136  A    between atoms: _321  and  _323
REMARK  137  A    between atoms: _323  and  _324
REMARK  138  A    between atoms: _323  and  _326
REMARK  139  A    between atoms: _326  and  _327
REMARK  140  A    between atoms: _330  and  _332
REMARK  141  A    between atoms: _332  and  _333
REMARK  142  A    between atoms: _332  and  _335
REMARK  143  A    between atoms: _335  and  _336
REMARK  144  A    between atoms: _338  and  _340
REMARK  145  A    between atoms: _340  and  _341
REMARK  146  A    between atoms: _340  and  _343
REMARK  147  A    between atoms: _343  and  _344
REMARK  148  A    between atoms: _347  and  _349
REMARK  149  A    between atoms: _349  and  _350
REMARK  150  A    between atoms: _349  and  _352
REMARK  151  A    between atoms: _352  and  _353
REMARK  152  A    between atoms: _353  and  _354
REMARK  153  A    between atoms: _357  and  _359
REMARK  154  A    between atoms: _359  and  _360
REMARK  155  A    between atoms: _363  and  _364
REMARK  156  A    between atoms: _369  and  _371
REMARK  157  A    between atoms: _371  and  _372
REMARK  158  A    between atoms: _375  and  _377
REMARK  159  A    between atoms: _377  and  _378
REMARK  160  A    between atoms: _377  and  _380
REMARK  161  A    between atoms: _380  and  _381
REMARK  162  A    between atoms: _381  and  _382
REMARK  163  A    between atoms: _385  and  _387
REMARK  164  A    between atoms: _387  and  _388
REMARK  165  A    between atoms: _387  and  _390
REMARK  166  A    between atoms: _390  and  _391
REMARK  167  A    between atoms: _396  and  _398
REMARK  168  A    between atoms: _398  and  _399
REMARK  169  A    between atoms: _398  and  _401
REMARK  170  A    between atoms: _401  and  _402
REMARK  171  A    between atoms: _405  and  _407
REMARK  172  A    between atoms: _407  and  _408
REMARK  173  A    between atoms: _407  and  _410
REMARK  174  A    between atoms: _410  and  _411
REMARK  175  A    between atoms: _414  and  _416
REMARK  176  A    between atoms: _416  and  _417
REMARK  177  A    between atoms: _416  and  _419
REMARK  178  A    between atoms: _419  and  _420
REMARK  179  A    between atoms: _426  and  _428
REMARK  180  A    between atoms: _428  and  _429
REMARK  181  A    between atoms: _428  and  _431
REMARK  182  A    between atoms: _434  and  _436
REMARK  183  A    between atoms: _436  and  _437
REMARK  184  A    between atoms: _436  and  _439
REMARK  185  A    between atoms: _439  and  _440
REMARK  186  A    between atoms: _443  and  _445
REMARK  187  A    between atoms: _445  and  _446
REMARK  188  A    between atoms: _449  and  _451
REMARK  189  A    between atoms: _451  and  _452
REMARK  190  A    between atoms: _451  and  _454
REMARK  191  A    between atoms: _454  and  _455
REMARK  192  A    between atoms: _460  and  _462
REMARK  193  A    between atoms: _462  and  _463
REMARK  194  A    between atoms: _462  and  _465
REMARK  195  A    between atoms: _465  and  _466
REMARK  196  A    between atoms: _466  and  _467
REMARK  197  A    between atoms: _467  and  _468
REMARK  198  A    between atoms: _468  and  _469
REMARK  199  A    between atoms: _473  and  _475
REMARK  200  A    between atoms: _475  and  _476
REMARK  201  A    between atoms: _475  and  _478
REMARK  202  A    between atoms: _478  and  _479
REMARK  203  A    between atoms: _482  and  _484
REMARK  204  A    between atoms: _484  and  _485
REMARK  205  A    between atoms: _487  and  _489
REMARK  206  A    between atoms: _489  and  _490
REMARK  207  A    between atoms: _489  and  _492
REMARK  208  A    between atoms: _492  and  _493
REMARK  209  A    between atoms: _498  and  _499
REMARK  210  A    between atoms: _501  and  _503
REMARK  211  A    between atoms: _503  and  _504
REMARK  212  A    between atoms: _503  and  _506
REMARK  213  A    between atoms: _506  and  _507
REMARK  214  A    between atoms: _512  and  _513
REMARK  215  A    between atoms: _515  and  _517
REMARK  216  A    between atoms: _517  and  _518
REMARK  217  A    between atoms: _517  and  _520
REMARK  218  A    between atoms: _520  and  _521
REMARK  219  A    between atoms: _524  and  _526
REMARK  220  A    between atoms: _526  and  _527
REMARK  221  A    between atoms: _526  and  _529
REMARK  222  A    between atoms: _529  and  _530
REMARK  223  A    between atoms: _535  and  _537
REMARK  224  A    between atoms: _537  and  _538
REMARK  225  A    between atoms: _537  and  _540
REMARK  226  A    between atoms: _540  and  _541
REMARK  227  A    between atoms: _546  and  _547
REMARK                            x       y       z     vdW  Elec       q    Type
REMARK                         _______ _______ _______ _____ _____    ______ ____
ROOT
ATOM      1  CG  TYR A   1      49.977 266.264 158.723  0.00  0.00    -0.020 A 
ATOM      2  CD2 TYR A   1      50.006 266.956 159.928  0.00  0.00    -0.001 A 
ATOM      3  CE2 TYR A   1      48.832 267.306 160.574  0.00  0.00    +0.036 A 
ATOM      4  CZ  TYR A   1      47.622 266.962 160.016  0.00  0.00    +0.134 A 
ATOM      5  CE1 TYR A   1      47.570 266.262 158.828  0.00  0.00    +0.036 A 
ATOM      6  CD1 TYR A   1      48.737 265.925 158.191  0.00  0.00    -0.001 A 
ENDROOT
BRANCH   4   7
ATOM      7  OH  TYR A   1      46.451 267.306 160.659  0.00  0.00    -0.506 OA
ATOM      8  HH  TYR A   1      46.665 267.801 161.490  0.00  0.00    +0.292 HD
ENDBRANCH   4   7
BRANCH   1   9
ATOM      9  CB  TYR A   1      51.252 265.854 158.036  0.00  0.00    +0.051 C 
BRANCH   9  10
ATOM     10  CA  TYR A   1      51.846 264.558 158.631  0.00  0.00    +0.137 C 
BRANCH  10  11
ATOM     11  N   TYR A   1      52.920 264.052 157.793  0.00  0.00    -0.239 NA
ATOM     12  H   TYR A   1      53.180 264.561 156.924  0.00  0.00    +0.142 HD
ENDBRANCH  10  11
BRANCH  10  13
ATOM     13  C   TYR A   1      50.747 263.488 158.802  0.00  0.00    +0.224 C 
ATOM     14  O   TYR A   1      50.337 263.141 159.926  0.00  0.00    -0.287 OA
ENDBRANCH  10  13
ENDBRANCH   9  10
ENDBRANCH   1   9
TORSDOF 5
REMARK  Name = ../refined-set-2016/4ymh/4ymh_pocket.pdb
REMARK  227 active torsions:
REMARK  status: ('A' for Active; 'I' for Inactive)
REMARK    1  A    between atoms: _1  and  _3
REMARK    2  A    between atoms: _3  and  _4
REMARK    3  A    between atoms: _3  and  _6
REMARK    4  A    between atoms: _6  and  _7
REMARK    5  A    between atoms: _12  and  _14
REMARK    6  A    between atoms: _14  and  _15
REMARK    7  A    between atoms: _14  and  _17
REMARK    8  A    between atoms: _17  and  _18
REMARK    9  A    between atoms: _28  and  _30
REMARK   10  A    between atoms: _30  and  _31
REMARK   11  A    between atoms: _30  and  _33
REMARK   12  A    between atoms: _33  and  _34
REMARK   13  A    between atoms: _37  and  _39
REMARK   14  A    between atoms: _39  and  _40
REMARK   15  A    between atoms: _39  and  _42
REMARK   16  A    between atoms: _42  and  _43
REMARK   17  A    between atoms: _46  and  _48
REMARK   18  A    between atoms: _48  and  _49
REMARK   19  A    between atoms: _52  and  _54
REMARK   20  A    between atoms: _54  and  _55
REMARK   21  A    between atoms: _54  and  _57
REMARK   22  A    between atoms: _57  and  _58
REMARK   23  A    between atoms: _61  and  _63
REMARK   24  A    between atoms: _63  and  _64
REMARK   25  A    between atoms: _63  and  _66
REMARK   26  A    between atoms: _66  and  _67
REMARK   27  A    between atoms: _67  and  _68
REMARK   28  A    between atoms: _68  and  _69
REMARK   29  A    between atoms: _69  and  _70
REMARK   30  A    between atoms: _74  and  _76
REMARK   31  A    between atoms: _76  and  _77
REMARK   32  A    between atoms: _76  and  _79
REMARK   33  A    between atoms: _79  and  _80
REMARK   34  A    between atoms: _80  and  _81
REMARK   35  A    between atoms: _83  and  _85
REMARK   36  A    between atoms: _85  and  _86
REMARK   37  A    between atoms: _85  and  _88
REMARK   38  A    between atoms: _88  and  _89
REMARK   39  A    between atoms: _91  and  _93
REMARK   40  A    between atoms: _93  and  _94
REMARK   41  A    between atoms: _93  and  _96
REMARK   42  A    between atoms: _96  and  _97
REMARK   43  A    between atoms: _99  and  _101
REMARK   44  A    between atoms: _101  and  _102
REMARK   45  A    between atoms: _101  and  _104
REMARK   46  A    between atoms: _104  and  _105
REMARK   47  A    between atoms: _105  and  _106
REMARK   48  A    between atoms: _111  and  _113
REMARK   49  A    between atoms: _113  and  _114
REMARK   50  A    between atoms: _116  and  _118
REMARK   51  A    between atoms: _118  and  _119
REMARK   52  A    between atoms: _118  and  _121
REMARK   53  A    between atoms: _121  and  _122
REMARK   54  A    between atoms: _122  and  _123
REMARK   55  A    between atoms: _125  and  _127
REMARK   56  A    between atoms: _127  and  _128
REMARK   57  A    between atoms: _127  and  _130
REMARK   58  A    between atoms: _130  and  _131
REMARK   59  A    between atoms: _131  and  _132
REMARK   60  A    between atoms: _135  and  _137
REMARK   61  A    between atoms: _137  and  _138
REMARK   62  A    between atoms: _137  and  _140
REMARK   63  A    between atoms: _140  and  _141
REMARK   64  A    between atoms: _144  and  _146
REMARK   65  A    between atoms: _146  and  _147
REMARK   66  A    between atoms: _149  and  _151
REMARK   67  A    between atoms: _151  and  _152
REMARK   68  A    between atoms: _151  and  _154
REMARK   69  A    between atoms: _156  and  _158
REMARK   70  A    between atoms: _158  and  _159
REMARK   71  A    between atoms: _158  and  _161
REMARK   72  A    between atoms: _161  and  _162
REMARK   73  A    between atoms: _167  and  _168
REMARK   74  A    between atoms: _170  and  _172
REMARK   75  A    between atoms: _172  and  _173
REMARK   76  A    between atoms: _172  and  _175
REMARK   77  A    between atoms: _175  and  _176
REMARK   78  A    between atoms: _178  and  _180
REMARK   79  A    between atoms: _180  and  _181
REMARK   80  A    between atoms: _183  and  _185
REMARK   81  A    between atoms: _185  and  _186
REMARK   82  A    between atoms: _185  and  _188
REMARK   83  A    between atoms: _188  and  _189
REMARK   84  A    between atoms: _194  and  _195
REMARK   85  A    between atoms: _197  and  _199
REMARK   86  A    between atoms: _199  and  _200
REMARK   87  A    between atoms: _199  and  _202
REMARK   88  A    between atoms: _202  and  _203
REMARK   89  A    between atoms: _205  and  _207
REMARK   90  A    between atoms: _207  and  _208
REMARK   91  A    between atoms: _211  and  _213
REMARK   92  A    between atoms: _213  and  _214
REMARK   93  A    between atoms: _213  and  _216
REMARK   94  A    between atoms: _216  and  _217
REMARK   95  A    between atoms: _220  and  _222
REMARK   96  A    between atoms: _222  and  _223
REMARK   97  A    between atoms: _226  and  _228
REMARK   98  A    between atoms: _228  and  _229
REMARK   99  A    between atoms: _228  and  _231
REMARK  100  A    between atoms: _231  and  _232
REMARK  101  A    between atoms: _242  and  _244
REMARK  102  A    between atoms: _244  and  _245
REMARK  103  A    between atoms: _244  and  _247
REMARK  104  A    between atoms: _247  and  _248
REMARK  105  A    between atoms: _251  and  _253
REMARK  106  A    between atoms: _253  and  _254
REMARK  107  A    between atoms: _253  and  _256
REMARK  108  A    between atoms: _256  and  _257
REMARK  109  A    between atoms: _260  and  _262
REMARK  110  A    between atoms: _262  and  _263
REMARK  111  A    between atoms: _262  and  _265
REMARK  112  A    between atoms: _265  and  _266
REMARK  113  A    between atoms: _266  and  _267
REMARK  114  A    between atoms: _270  and  _272
REMARK  115  A    between atoms: _272  and  _273
REMARK  116  A    between atoms: _272  and  _275
REMARK  117  A    between atoms: _275  and  _276
REMARK  118  A    between atoms: _281  and  _282
REMARK  119  A    between atoms: _284  and  _286
REMARK  120  A    between atoms: _286  and  _287
REMARK  121  A    between atoms: _286  and  _289
REMARK  122  A    between atoms: _289  and  _290
REMARK  123  A    between atoms: _293  and  _294
REMARK  124  A    between atoms: _299  and  _301
REMARK  125  A    between atoms: _301  and  _302
REMARK  126  A    between atoms: _301  and  _304
REMARK  127  A    between atoms: _304  and  _305
REMARK  128  A    between atoms: _305  and  _306
REMARK  129  A    between atoms: _306  and  _307
REMARK  130  A    between atoms: _307  and  _308
REMARK  131  A    between atoms: _312  and  _314
REMARK  132  A    between atoms: _314  and  _315
REMARK  133  A    between atoms: _314  and  _317
REMARK  134  A    between atoms: _317  and  _318
REMARK  135  A    between atoms: _318  and  _319
REMARK  136  A    between atoms: _321  and  _323
REMARK  137  A    between atoms: _323  and  _324
REMARK  138  A    between atoms: _323  and  _326
REMARK  139  A    between atoms: _326  and  _327
REMARK  140  A    between atoms: _330  and  _332
REMARK  141  A    between atoms: _332  and  _333
REMARK  142  A    between atoms: _332  and  _335
REMARK  143  A    between atoms: _335  and  _336
REMARK  144  A    between atoms: _338  and  _340
REMARK  145  A    between atoms: _340  and  _341
REMARK  146  A    between atoms: _340  and  _343
REMARK  147  A    between atoms: _343  and  _344
REMARK  148  A    between atoms: _347  and  _349
REMARK  149  A    between atoms: _349  and  _350
REMARK  150  A    between atoms: _349  and  _352
REMARK  151  A    between atoms: _352  and  _353
REMARK  152  A    between atoms: _353  and  _354
REMARK  153  A    between atoms: _357  and  _359
REMARK  154  A    between atoms: _359  and  _360
REMARK  155  A    between atoms: _363  and  _364
REMARK  156  A    between atoms: _369  and  _371
REMARK  157  A    between atoms: _371  and  _372
REMARK  158  A    between atoms: _375  and  _377
REMARK  159  A    between atoms: _377  and  _378
REMARK  160  A    between atoms: _377  and  _380
REMARK  161  A    between atoms: _380  and  _381
REMARK  162  A    between atoms: _381  and  _382
REMARK  163  A    between atoms: _385  and  _387
REMARK  164  A    between atoms: _387  and  _388
REMARK  165  A    between atoms: _387  and  _390
REMARK  166  A    between atoms: _390  and  _391
REMARK  167  A    between atoms: _396  and  _398
REMARK  168  A    between atoms: _398  and  _399
REMARK  169  A    between atoms: _398  and  _401
REMARK  170  A    between atoms: _401  and  _402
REMARK  171  A    between atoms: _405  and  _407
REMARK  172  A    between atoms: _407  and  _408
REMARK  173  A    between atoms: _407  and  _410
REMARK  174  A    between atoms: _410  and  _411
REMARK  175  A    between atoms: _414  and  _416
REMARK  176  A    between atoms: _416  and  _417
REMARK  177  A    between atoms: _416  and  _419
REMARK  178  A    between atoms: _419  and  _420
REMARK  179  A    between atoms: _426  and  _428
REMARK  180  A    between atoms: _428  and  _429
REMARK  181  A    between atoms: _428  and  _431
REMARK  182  A    between atoms: _434  and  _436
REMARK  183  A    between atoms: _436  and  _437
REMARK  184  A    between atoms: _436  and  _439
REMARK  185  A    between atoms: _439  and  _440
REMARK  186  A    between atoms: _443  and  _445
REMARK  187  A    between atoms: _445  and  _446
REMARK  188  A    between atoms: _449  and  _451
REMARK  189  A    between atoms: _451  and  _452
REMARK  190  A    between atoms: _451  and  _454
REMARK  191  A    between atoms: _454  and  _455
REMARK  192  A    between atoms: _460  and  _462
REMARK  193  A    between atoms: _462  and  _463
REMARK  194  A    between atoms: _462  and  _465
REMARK  195  A    between atoms: _465  and  _466
REMARK  196  A    between atoms: _466  and  _467
REMARK  197  A    between atoms: _467  and  _468
REMARK  198  A    between atoms: _468  and  _469
REMARK  199  A    between atoms: _473  and  _475
REMARK  200  A    between atoms: _475  and  _476
REMARK  201  A    between atoms: _475  and  _478
REMARK  202  A    between atoms: _478  and  _479
REMARK  203  A    between atoms: _482  and  _484
REMARK  204  A    between atoms: _484  and  _485
REMARK  205  A    between atoms: _487  and  _489
REMARK  206  A    between atoms: _489  and  _490
REMARK  207  A    between atoms: _489  and  _492
REMARK  208  A    between atoms: _492  and  _493
REMARK  209  A    between atoms: _498  and  _499
REMARK  210  A    between atoms: _501  and  _503
REMARK  211  A    between atoms: _503  and  _504
REMARK  212  A    between atoms: _503  and  _506
REMARK  213  A    between atoms: _506  and  _507
REMARK  214  A    between atoms: _512  and  _513
REMARK  215  A    between atoms: _515  and  _517
REMARK  216  A    between atoms: _517  and  _518
REMARK  217  A    between atoms: _517  and  _520
REMARK  218  A    between atoms: _520  and  _521
REMARK  219  A    between atoms: _524  and  _526
REMARK  220  A    between atoms: _526  and  _527
REMARK  221  A    between atoms: _526  and  _529
REMARK  222  A    between atoms: _529  and  _530
REMARK  223  A    between atoms: _535  and  _537
REMARK  224  A    between atoms: _537  and  _538
REMARK  225  A    between atoms: _537  and  _540
REMARK  226  A    between atoms: _540  and  _541
REMARK  227  A    between atoms: _546  and  _547
REMARK                            x       y       z     vdW  Elec       q    Type
REMARK                         _______ _______ _______ _____ _____    ______ ____
ROOT
ATOM      1  O   HOH     1      43.601 275.282 161.158  0.00  0.00    +0.000 OA
ENDROOT
TORSDOF 0
REMARK  Name = ../refined-set-2016/4ymh/4ymh_pocket.pdb
REMARK  227 active torsions:
REMARK  status: ('A' for Active; 'I' for Inactive)
REMARK    1  A    between atoms: _1  and  _3
REMARK    2  A    between atoms: _3  and  _4
REMARK    3  A    between atoms: _3  and  _6
REMARK    4  A    between atoms: _6  and  _7
REMARK    5  A    between atoms: _12  and  _14
REMARK    6  A    between atoms: _14  and  _15
REMARK    7  A    between atoms: _14  and  _17
REMARK    8  A    between atoms: _17  and  _18
REMARK    9  A    between atoms: _28  and  _30
REMARK   10  A    between atoms: _30  and  _31
REMARK   11  A    between atoms: _30  and  _33
REMARK   12  A    between atoms: _33  and  _34
REMARK   13  A    between atoms: _37  and  _39
REMARK   14  A    between atoms: _39  and  _40
REMARK   15  A    between atoms: _39  and  _42
REMARK   16  A    between atoms: _42  and  _43
REMARK   17  A    between atoms: _46  and  _48
REMARK   18  A    between atoms: _48  and  _49
REMARK   19  A    between atoms: _52  and  _54
REMARK   20  A    between atoms: _54  and  _55
REMARK   21  A    between atoms: _54  and  _57
REMARK   22  A    between atoms: _57  and  _58
REMARK   23  A    between atoms: _61  and  _63
REMARK   24  A    between atoms: _63  and  _64
REMARK   25  A    between atoms: _63  and  _66
REMARK   26  A    between atoms: _66  and  _67
REMARK   27  A    between atoms: _67  and  _68
REMARK   28  A    between atoms: _68  and  _69
REMARK   29  A    between atoms: _69  and  _70
REMARK   30  A    between atoms: _74  and  _76
REMARK   31  A    between atoms: _76  and  _77
REMARK   32  A    between atoms: _76  and  _79
REMARK   33  A    between atoms: _79  and  _80
REMARK   34  A    between atoms: _80  and  _81
REMARK   35  A    between atoms: _83  and  _85
REMARK   36  A    between atoms: _85  and  _86
REMARK   37  A    between atoms: _85  and  _88
REMARK   38  A    between atoms: _88  and  _89
REMARK   39  A    between atoms: _91  and  _93
REMARK   40  A    between atoms: _93  and  _94
REMARK   41  A    between atoms: _93  and  _96
REMARK   42  A    between atoms: _96  and  _97
REMARK   43  A    between atoms: _99  and  _101
REMARK   44  A    between atoms: _101  and  _102
REMARK   45  A    between atoms: _101  and  _104
REMARK   46  A    between atoms: _104  and  _105
REMARK   47  A    between atoms: _105  and  _106
REMARK   48  A    between atoms: _111  and  _113
REMARK   49  A    between atoms: _113  and  _114
REMARK   50  A    between atoms: _116  and  _118
REMARK   51  A    between atoms: _118  and  _119
REMARK   52  A    between atoms: _118  and  _121
REMARK   53  A    between atoms: _121  and  _122
REMARK   54  A    between atoms: _122  and  _123
REMARK   55  A    between atoms: _125  and  _127
REMARK   56  A    between atoms: _127  and  _128
REMARK   57  A    between atoms: _127  and  _130
REMARK   58  A    between atoms: _130  and  _131
REMARK   59  A    between atoms: _131  and  _132
REMARK   60  A    between atoms: _135  and  _137
REMARK   61  A    between atoms: _137  and  _138
REMARK   62  A    between atoms: _137  and  _140
REMARK   63  A    between atoms: _140  and  _141
REMARK   64  A    between atoms: _144  and  _146
REMARK   65  A    between atoms: _146  and  _147
REMARK   66  A    between atoms: _149  and  _151
REMARK   67  A    between atoms: _151  and  _152
REMARK   68  A    between atoms: _151  and  _154
REMARK   69  A    between atoms: _156  and  _158
REMARK   70  A    between atoms: _158  and  _159
REMARK   71  A    between atoms: _158  and  _161
REMARK   72  A    between atoms: _161  and  _162
REMARK   73  A    between atoms: _167  and  _168
REMARK   74  A    between atoms: _170  and  _172
REMARK   75  A    between atoms: _172  and  _173
REMARK   76  A    between atoms: _172  and  _175
REMARK   77  A    between atoms: _175  and  _176
REMARK   78  A    between atoms: _178  and  _180
REMARK   79  A    between atoms: _180  and  _181
REMARK   80  A    between atoms: _183  and  _185
REMARK   81  A    between atoms: _185  and  _186
REMARK   82  A    between atoms: _185  and  _188
REMARK   83  A    between atoms: _188  and  _189
REMARK   84  A    between atoms: _194  and  _195
REMARK   85  A    between atoms: _197  and  _199
REMARK   86  A    between atoms: _199  and  _200
REMARK   87  A    between atoms: _199  and  _202
REMARK   88  A    between atoms: _202  and  _203
REMARK   89  A    between atoms: _205  and  _207
REMARK   90  A    between atoms: _207  and  _208
REMARK   91  A    between atoms: _211  and  _213
REMARK   92  A    between atoms: _213  and  _214
REMARK   93  A    between atoms: _213  and  _216
REMARK   94  A    between atoms: _216  and  _217
REMARK   95  A    between atoms: _220  and  _222
REMARK   96  A    between atoms: _222  and  _223
REMARK   97  A    between atoms: _226  and  _228
REMARK   98  A    between atoms: _228  and  _229
REMARK   99  A    between atoms: _228  and  _231
REMARK  100  A    between atoms: _231  and  _232
REMARK  101  A    between atoms: _242  and  _244
REMARK  102  A    between atoms: _244  and  _245
REMARK  103  A    between atoms: _244  and  _247
REMARK  104  A    between atoms: _247  and  _248
REMARK  105  A    between atoms: _251  and  _253
REMARK  106  A    between atoms: _253  and  _254
REMARK  107  A    between atoms: _253  and  _256
REMARK  108  A    between atoms: _256  and  _257
REMARK  109  A    between atoms: _260  and  _262
REMARK  110  A    between atoms: _262  and  _263
REMARK  111  A    between atoms: _262  and  _265
REMARK  112  A    between atoms: _265  and  _266
REMARK  113  A    between atoms: _266  and  _267
REMARK  114  A    between atoms: _270  and  _272
REMARK  115  A    between atoms: _272  and  _273
REMARK  116  A    between atoms: _272  and  _275
REMARK  117  A    between atoms: _275  and  _276
REMARK  118  A    between atoms: _281  and  _282
REMARK  119  A    between atoms: _284  and  _286
REMARK  120  A    between atoms: _286  and  _287
REMARK  121  A    between atoms: _286  and  _289
REMARK  122  A    between atoms: _289  and  _290
REMARK  123  A    between atoms: _293  and  _294
REMARK  124  A    between atoms: _299  and  _301
REMARK  125  A    between atoms: _301  and  _302
REMARK  126  A    between atoms: _301  and  _304
REMARK  127  A    between atoms: _304  and  _305
REMARK  128  A    between atoms: _305  and  _306
REMARK  129  A    between atoms: _306  and  _307
REMARK  130  A    between atoms: _307  and  _308
REMARK  131  A    between atoms: _312  and  _314
REMARK  132  A    between atoms: _314  and  _315
REMARK  133  A    between atoms: _314  and  _317
REMARK  134  A    between atoms: _317  and  _318
REMARK  135  A    between atoms: _318  and  _319
REMARK  136  A    between atoms: _321  and  _323
REMARK  137  A    between atoms: _323  and  _324
REMARK  138  A    between atoms: _323  and  _326
REMARK  139  A    between atoms: _326  and  _327
REMARK  140  A    between atoms: _330  and  _332
REMARK  141  A    between atoms: _332  and  _333
REMARK  142  A    between atoms: _332  and  _335
REMARK  143  A    between atoms: _335  and  _336
REMARK  144  A    between atoms: _338  and  _340
REMARK  145  A    between atoms: _340  and  _341
REMARK  146  A    between atoms: _340  and  _343
REMARK  147  A    between atoms: _343  and  _344
REMARK  148  A    between atoms: _347  and  _349
REMARK  149  A    between atoms: _349  and  _350
REMARK  150  A    between atoms: _349  and  _352
REMARK  151  A    between atoms: _352  and  _353
REMARK  152  A    between atoms: _353  and  _354
REMARK  153  A    between atoms: _357  and  _359
REMARK  154  A    between atoms: _359  and  _360
REMARK  155  A    between atoms: _363  and  _364
REMARK  156  A    between atoms: _369  and  _371
REMARK  157  A    between atoms: _371  and  _372
REMARK  158  A    between atoms: _375  and  _377
REMARK  159  A    between atoms: _377  and  _378
REMARK  160  A    between atoms: _377  and  _380
REMARK  161  A    between atoms: _380  and  _381
REMARK  162  A    between atoms: _381  and  _382
REMARK  163  A    between atoms: _385  and  _387
REMARK  164  A    between atoms: _387  and  _388
REMARK  165  A    between atoms: _387  and  _390
REMARK  166  A    between atoms: _390  and  _391
REMARK  167  A    between atoms: _396  and  _398
REMARK  168  A    between atoms: _398  and  _399
REMARK  169  A    between atoms: _398  and  _401
REMARK  170  A    between atoms: _401  and  _402
REMARK  171  A    between atoms: _405  and  _407
REMARK  172  A    between atoms: _407  and  _408
REMARK  173  A    between atoms: _407  and  _410
REMARK  174  A    between atoms: _410  and  _411
REMARK  175  A    between atoms: _414  and  _416
REMARK  176  A    between atoms: _416  and  _417
REMARK  177  A    between atoms: _416  and  _419
REMARK  178  A    between atoms: _419  and  _420
REMARK  179  A    between atoms: _426  and  _428
REMARK  180  A    between atoms: _428  and  _429
REMARK  181  A    between atoms: _428  and  _431
REMARK  182  A    between atoms: _434  and  _436
REMARK  183  A    between atoms: _436  and  _437
REMARK  184  A    between atoms: _436  and  _439
REMARK  185  A    between atoms: _439  and  _440
REMARK  186  A    between atoms: _443  and  _445
REMARK  187  A    between atoms: _445  and  _446
REMARK  188  A    between atoms: _449  and  _451
REMARK  189  A    between atoms: _451  and  _452
REMARK  190  A    between atoms: _451  and  _454
REMARK  191  A    between atoms: _454  and  _455
REMARK  192  A    between atoms: _460  and  _462
REMARK  193  A    between atoms: _462  and  _463
REMARK  194  A    between atoms: _462  and  _465
REMARK  195  A    between atoms: _465  and  _466
REMARK  196  A    between atoms: _466  and  _467
REMARK  197  A    between atoms: _467  and  _468
REMARK  198  A    between atoms: _468  and  _469
REMARK  199  A    between atoms: _473  and  _475
REMARK  200  A    between atoms: _475  and  _476
REMARK  201  A    between atoms: _475  and  _478
REMARK  202  A    between atoms: _478  and  _479
REMARK  203  A    between atoms: _482  and  _484
REMARK  204  A    between atoms: _484  and  _485
REMARK  205  A    between atoms: _487  and  _489
REMARK  206  A    between atoms: _489  and  _490
REMARK  207  A    between atoms: _489  and  _492
REMARK  208  A    between atoms: _492  and  _493
REMARK  209  A    between atoms: _498  and  _499
REMARK  210  A    between atoms: _501  and  _503
REMARK  211  A    between atoms: _503  and  _504
REMARK  212  A    between atoms: _503  and  _506
REMARK  213  A    between atoms: _506  and  _507
REMARK  214  A    between atoms: _512  and  _513
REMARK  215  A    between atoms: _515  and  _517
REMARK  216  A    between atoms: _517  and  _518
REMARK  217  A    between atoms: _517  and  _520
REMARK  218  A    between atoms: _520  and  _521
REMARK  219  A    between atoms: _524  and  _526
REMARK  220  A    between atoms: _526  and  _527
REMARK  221  A    between atoms: _526  and  _529
REMARK  222  A    between atoms: _529  and  _530
REMARK  223  A    between atoms: _535  and  _537
REMARK  224  A    between atoms: _537  and  _538
REMARK  225  A    between atoms: _537  and  _540
REMARK  226  A    between atoms: _540  and  _541
REMARK  227  A    between atoms: _546  and  _547
REMARK                            x       y       z     vdW  Elec       q    Type
REMARK                         _______ _______ _______ _____ _____    ______ ____
ROOT
ATOM      1  O   HOH     1      44.317 271.012 162.157  0.00  0.00    +0.000 OA
ENDROOT
TORSDOF 0
REMARK  Name = ../refined-set-2016/4ymh/4ymh_pocket.pdb
REMARK  227 active torsions:
REMARK  status: ('A' for Active; 'I' for Inactive)
REMARK    1  A    between atoms: _1  and  _3
REMARK    2  A    between atoms: _3  and  _4
REMARK    3  A    between atoms: _3  and  _6
REMARK    4  A    between atoms: _6  and  _7
REMARK    5  A    between atoms: _12  and  _14
REMARK    6  A    between atoms: _14  and  _15
REMARK    7  A    between atoms: _14  and  _17
REMARK    8  A    between atoms: _17  and  _18
REMARK    9  A    between atoms: _28  and  _30
REMARK   10  A    between atoms: _30  and  _31
REMARK   11  A    between atoms: _30  and  _33
REMARK   12  A    between atoms: _33  and  _34
REMARK   13  A    between atoms: _37  and  _39
REMARK   14  A    between atoms: _39  and  _40
REMARK   15  A    between atoms: _39  and  _42
REMARK   16  A    between atoms: _42  and  _43
REMARK   17  A    between atoms: _46  and  _48
REMARK   18  A    between atoms: _48  and  _49
REMARK   19  A    between atoms: _52  and  _54
REMARK   20  A    between atoms: _54  and  _55
REMARK   21  A    between atoms: _54  and  _57
REMARK   22  A    between atoms: _57  and  _58
REMARK   23  A    between atoms: _61  and  _63
REMARK   24  A    between atoms: _63  and  _64
REMARK   25  A    between atoms: _63  and  _66
REMARK   26  A    between atoms: _66  and  _67
REMARK   27  A    between atoms: _67  and  _68
REMARK   28  A    between atoms: _68  and  _69
REMARK   29  A    between atoms: _69  and  _70
REMARK   30  A    between atoms: _74  and  _76
REMARK   31  A    between atoms: _76  and  _77
REMARK   32  A    between atoms: _76  and  _79
REMARK   33  A    between atoms: _79  and  _80
REMARK   34  A    between atoms: _80  and  _81
REMARK   35  A    between atoms: _83  and  _85
REMARK   36  A    between atoms: _85  and  _86
REMARK   37  A    between atoms: _85  and  _88
REMARK   38  A    between atoms: _88  and  _89
REMARK   39  A    between atoms: _91  and  _93
REMARK   40  A    between atoms: _93  and  _94
REMARK   41  A    between atoms: _93  and  _96
REMARK   42  A    between atoms: _96  and  _97
REMARK   43  A    between atoms: _99  and  _101
REMARK   44  A    between atoms: _101  and  _102
REMARK   45  A    between atoms: _101  and  _104
REMARK   46  A    between atoms: _104  and  _105
REMARK   47  A    between atoms: _105  and  _106
REMARK   48  A    between atoms: _111  and  _113
REMARK   49  A    between atoms: _113  and  _114
REMARK   50  A    between atoms: _116  and  _118
REMARK   51  A    between atoms: _118  and  _119
REMARK   52  A    between atoms: _118  and  _121
REMARK   53  A    between atoms: _121  and  _122
REMARK   54  A    between atoms: _122  and  _123
REMARK   55  A    between atoms: _125  and  _127
REMARK   56  A    between atoms: _127  and  _128
REMARK   57  A    between atoms: _127  and  _130
REMARK   58  A    between atoms: _130  and  _131
REMARK   59  A    between atoms: _131  and  _132
REMARK   60  A    between atoms: _135  and  _137
REMARK   61  A    between atoms: _137  and  _138
REMARK   62  A    between atoms: _137  and  _140
REMARK   63  A    between atoms: _140  and  _141
REMARK   64  A    between atoms: _144  and  _146
REMARK   65  A    between atoms: _146  and  _147
REMARK   66  A    between atoms: _149  and  _151
REMARK   67  A    between atoms: _151  and  _152
REMARK   68  A    between atoms: _151  and  _154
REMARK   69  A    between atoms: _156  and  _158
REMARK   70  A    between atoms: _158  and  _159
REMARK   71  A    between atoms: _158  and  _161
REMARK   72  A    between atoms: _161  and  _162
REMARK   73  A    between atoms: _167  and  _168
REMARK   74  A    between atoms: _170  and  _172
REMARK   75  A    between atoms: _172  and  _173
REMARK   76  A    between atoms: _172  and  _175
REMARK   77  A    between atoms: _175  and  _176
REMARK   78  A    between atoms: _178  and  _180
REMARK   79  A    between atoms: _180  and  _181
REMARK   80  A    between atoms: _183  and  _185
REMARK   81  A    between atoms: _185  and  _186
REMARK   82  A    between atoms: _185  and  _188
REMARK   83  A    between atoms: _188  and  _189
REMARK   84  A    between atoms: _194  and  _195
REMARK   85  A    between atoms: _197  and  _199
REMARK   86  A    between atoms: _199  and  _200
REMARK   87  A    between atoms: _199  and  _202
REMARK   88  A    between atoms: _202  and  _203
REMARK   89  A    between atoms: _205  and  _207
REMARK   90  A    between atoms: _207  and  _208
REMARK   91  A    between atoms: _211  and  _213
REMARK   92  A    between atoms: _213  and  _214
REMARK   93  A    between atoms: _213  and  _216
REMARK   94  A    between atoms: _216  and  _217
REMARK   95  A    between atoms: _220  and  _222
REMARK   96  A    between atoms: _222  and  _223
REMARK   97  A    between atoms: _226  and  _228
REMARK   98  A    between atoms: _228  and  _229
REMARK   99  A    between atoms: _228  and  _231
REMARK  100  A    between atoms: _231  and  _232
REMARK  101  A    between atoms: _242  and  _244
REMARK  102  A    between atoms: _244  and  _245
REMARK  103  A    between atoms: _244  and  _247
REMARK  104  A    between atoms: _247  and  _248
REMARK  105  A    between atoms: _251  and  _253
REMARK  106  A    between atoms: _253  and  _254
REMARK  107  A    between atoms: _253  and  _256
REMARK  108  A    between atoms: _256  and  _257
REMARK  109  A    between atoms: _260  and  _262
REMARK  110  A    between atoms: _262  and  _263
REMARK  111  A    between atoms: _262  and  _265
REMARK  112  A    between atoms: _265  and  _266
REMARK  113  A    between atoms: _266  and  _267
REMARK  114  A    between atoms: _270  and  _272
REMARK  115  A    between atoms: _272  and  _273
REMARK  116  A    between atoms: _272  and  _275
REMARK  117  A    between atoms: _275  and  _276
REMARK  118  A    between atoms: _281  and  _282
REMARK  119  A    between atoms: _284  and  _286
REMARK  120  A    between atoms: _286  and  _287
REMARK  121  A    between atoms: _286  and  _289
REMARK  122  A    between atoms: _289  and  _290
REMARK  123  A    between atoms: _293  and  _294
REMARK  124  A    between atoms: _299  and  _301
REMARK  125  A    between atoms: _301  and  _302
REMARK  126  A    between atoms: _301  and  _304
REMARK  127  A    between atoms: _304  and  _305
REMARK  128  A    between atoms: _305  and  _306
REMARK  129  A    between atoms: _306  and  _307
REMARK  130  A    between atoms: _307  and  _308
REMARK  131  A    between atoms: _312  and  _314
REMARK  132  A    between atoms: _314  and  _315
REMARK  133  A    between atoms: _314  and  _317
REMARK  134  A    between atoms: _317  and  _318
REMARK  135  A    between atoms: _318  and  _319
REMARK  136  A    between atoms: _321  and  _323
REMARK  137  A    between atoms: _323  and  _324
REMARK  138  A    between atoms: _323  and  _326
REMARK  139  A    between atoms: _326  and  _327
REMARK  140  A    between atoms: _330  and  _332
REMARK  141  A    between atoms: _332  and  _333
REMARK  142  A    between atoms: _332  and  _335
REMARK  143  A    between atoms: _335  and  _336
REMARK  144  A    between atoms: _338  and  _340
REMARK  145  A    between atoms: _340  and  _341
REMARK  146  A    between atoms: _340  and  _343
REMARK  147  A    between atoms: _343  and  _344
REMARK  148  A    between atoms: _347  and  _349
REMARK  149  A    between atoms: _349  and  _350
REMARK  150  A    between atoms: _349  and  _352
REMARK  151  A    between atoms: _352  and  _353
REMARK  152  A    between atoms: _353  and  _354
REMARK  153  A    between atoms: _357  and  _359
REMARK  154  A    between atoms: _359  and  _360
REMARK  155  A    between atoms: _363  and  _364
REMARK  156  A    between atoms: _369  and  _371
REMARK  157  A    between atoms: _371  and  _372
REMARK  158  A    between atoms: _375  and  _377
REMARK  159  A    between atoms: _377  and  _378
REMARK  160  A    between atoms: _377  and  _380
REMARK  161  A    between atoms: _380  and  _381
REMARK  162  A    between atoms: _381  and  _382
REMARK  163  A    between atoms: _385  and  _387
REMARK  164  A    between atoms: _387  and  _388
REMARK  165  A    between atoms: _387  and  _390
REMARK  166  A    between atoms: _390  and  _391
REMARK  167  A    between atoms: _396  and  _398
REMARK  168  A    between atoms: _398  and  _399
REMARK  169  A    between atoms: _398  and  _401
REMARK  170  A    between atoms: _401  and  _402
REMARK  171  A    between atoms: _405  and  _407
REMARK  172  A    between atoms: _407  and  _408
REMARK  173  A    between atoms: _407  and  _410
REMARK  174  A    between atoms: _410  and  _411
REMARK  175  A    between atoms: _414  and  _416
REMARK  176  A    between atoms: _416  and  _417
REMARK  177  A    between atoms: _416  and  _419
REMARK  178  A    between atoms: _419  and  _420
REMARK  179  A    between atoms: _426  and  _428
REMARK  180  A    between atoms: _428  and  _429
REMARK  181  A    between atoms: _428  and  _431
REMARK  182  A    between atoms: _434  and  _436
REMARK  183  A    between atoms: _436  and  _437
REMARK  184  A    between atoms: _436  and  _439
REMARK  185  A    between atoms: _439  and  _440
REMARK  186  A    between atoms: _443  and  _445
REMARK  187  A    between atoms: _445  and  _446
REMARK  188  A    between atoms: _449  and  _451
REMARK  189  A    between atoms: _451  and  _452
REMARK  190  A    between atoms: _451  and  _454
REMARK  191  A    between atoms: _454  and  _455
REMARK  192  A    between atoms: _460  and  _462
REMARK  193  A    between atoms: _462  and  _463
REMARK  194  A    between atoms: _462  and  _465
REMARK  195  A    between atoms: _465  and  _466
REMARK  196  A    between atoms: _466  and  _467
REMARK  197  A    between atoms: _467  and  _468
REMARK  198  A    between atoms: _468  and  _469
REMARK  199  A    between atoms: _473  and  _475
REMARK  200  A    between atoms: _475  and  _476
REMARK  201  A    between atoms: _475  and  _478
REMARK  202  A    between atoms: _478  and  _479
REMARK  203  A    between atoms: _482  and  _484
REMARK  204  A    between atoms: _484  and  _485
REMARK  205  A    between atoms: _487  and  _489
REMARK  206  A    between atoms: _489  and  _490
REMARK  207  A    between atoms: _489  and  _492
REMARK  208  A    between atoms: _492  and  _493
REMARK  209  A    between atoms: _498  and  _499
REMARK  210  A    between atoms: _501  and  _503
REMARK  211  A    between atoms: _503  and  _504
REMARK  212  A    between atoms: _503  and  _506
REMARK  213  A    between atoms: _506  and  _507
REMARK  214  A    between atoms: _512  and  _513
REMARK  215  A    between atoms: _515  and  _517
REMARK  216  A    between atoms: _517  and  _518
REMARK  217  A    between atoms: _517  and  _520
REMARK  218  A    between atoms: _520  and  _521
REMARK  219  A    between atoms: _524  and  _526
REMARK  220  A    between atoms: _526  and  _527
REMARK  221  A    between atoms: _526  and  _529
REMARK  222  A    between atoms: _529  and  _530
REMARK  223  A    between atoms: _535  and  _537
REMARK  224  A    between atoms: _537  and  _538
REMARK  225  A    between atoms: _537  and  _540
REMARK  226  A    between atoms: _540  and  _541
REMARK  227  A    between atoms: _546  and  _547
REMARK                            x       y       z     vdW  Elec       q    Type
REMARK                         _______ _______ _______ _____ _____    ______ ____
ROOT
ATOM      1  O   HOH     1      41.748 267.088 157.784  0.00  0.00    +0.000 OA
ENDROOT
TORSDOF 0
REMARK  Name = ../refined-set-2016/4ymh/4ymh_pocket.pdb
REMARK  227 active torsions:
REMARK  status: ('A' for Active; 'I' for Inactive)
REMARK    1  A    between atoms: _1  and  _3
REMARK    2  A    between atoms: _3  and  _4
REMARK    3  A    between atoms: _3  and  _6
REMARK    4  A    between atoms: _6  and  _7
REMARK    5  A    between atoms: _12  and  _14
REMARK    6  A    between atoms: _14  and  _15
REMARK    7  A    between atoms: _14  and  _17
REMARK    8  A    between atoms: _17  and  _18
REMARK    9  A    between atoms: _28  and  _30
REMARK   10  A    between atoms: _30  and  _31
REMARK   11  A    between atoms: _30  and  _33
REMARK   12  A    between atoms: _33  and  _34
REMARK   13  A    between atoms: _37  and  _39
REMARK   14  A    between atoms: _39  and  _40
REMARK   15  A    between atoms: _39  and  _42
REMARK   16  A    between atoms: _42  and  _43
REMARK   17  A    between atoms: _46  and  _48
REMARK   18  A    between atoms: _48  and  _49
REMARK   19  A    between atoms: _52  and  _54
REMARK   20  A    between atoms: _54  and  _55
REMARK   21  A    between atoms: _54  and  _57
REMARK   22  A    between atoms: _57  and  _58
REMARK   23  A    between atoms: _61  and  _63
REMARK   24  A    between atoms: _63  and  _64
REMARK   25  A    between atoms: _63  and  _66
REMARK   26  A    between atoms: _66  and  _67
REMARK   27  A    between atoms: _67  and  _68
REMARK   28  A    between atoms: _68  and  _69
REMARK   29  A    between atoms: _69  and  _70
REMARK   30  A    between atoms: _74  and  _76
REMARK   31  A    between atoms: _76  and  _77
REMARK   32  A    between atoms: _76  and  _79
REMARK   33  A    between atoms: _79  and  _80
REMARK   34  A    between atoms: _80  and  _81
REMARK   35  A    between atoms: _83  and  _85
REMARK   36  A    between atoms: _85  and  _86
REMARK   37  A    between atoms: _85  and  _88
REMARK   38  A    between atoms: _88  and  _89
REMARK   39  A    between atoms: _91  and  _93
REMARK   40  A    between atoms: _93  and  _94
REMARK   41  A    between atoms: _93  and  _96
REMARK   42  A    between atoms: _96  and  _97
REMARK   43  A    between atoms: _99  and  _101
REMARK   44  A    between atoms: _101  and  _102
REMARK   45  A    between atoms: _101  and  _104
REMARK   46  A    between atoms: _104  and  _105
REMARK   47  A    between atoms: _105  and  _106
REMARK   48  A    between atoms: _111  and  _113
REMARK   49  A    between atoms: _113  and  _114
REMARK   50  A    between atoms: _116  and  _118
REMARK   51  A    between atoms: _118  and  _119
REMARK   52  A    between atoms: _118  and  _121
REMARK   53  A    between atoms: _121  and  _122
REMARK   54  A    between atoms: _122  and  _123
REMARK   55  A    between atoms: _125  and  _127
REMARK   56  A    between atoms: _127  and  _128
REMARK   57  A    between atoms: _127  and  _130
REMARK   58  A    between atoms: _130  and  _131
REMARK   59  A    between atoms: _131  and  _132
REMARK   60  A    between atoms: _135  and  _137
REMARK   61  A    between atoms: _137  and  _138
REMARK   62  A    between atoms: _137  and  _140
REMARK   63  A    between atoms: _140  and  _141
REMARK   64  A    between atoms: _144  and  _146
REMARK   65  A    between atoms: _146  and  _147
REMARK   66  A    between atoms: _149  and  _151
REMARK   67  A    between atoms: _151  and  _152
REMARK   68  A    between atoms: _151  and  _154
REMARK   69  A    between atoms: _156  and  _158
REMARK   70  A    between atoms: _158  and  _159
REMARK   71  A    between atoms: _158  and  _161
REMARK   72  A    between atoms: _161  and  _162
REMARK   73  A    between atoms: _167  and  _168
REMARK   74  A    between atoms: _170  and  _172
REMARK   75  A    between atoms: _172  and  _173
REMARK   76  A    between atoms: _172  and  _175
REMARK   77  A    between atoms: _175  and  _176
REMARK   78  A    between atoms: _178  and  _180
REMARK   79  A    between atoms: _180  and  _181
REMARK   80  A    between atoms: _183  and  _185
REMARK   81  A    between atoms: _185  and  _186
REMARK   82  A    between atoms: _185  and  _188
REMARK   83  A    between atoms: _188  and  _189
REMARK   84  A    between atoms: _194  and  _195
REMARK   85  A    between atoms: _197  and  _199
REMARK   86  A    between atoms: _199  and  _200
REMARK   87  A    between atoms: _199  and  _202
REMARK   88  A    between atoms: _202  and  _203
REMARK   89  A    between atoms: _205  and  _207
REMARK   90  A    between atoms: _207  and  _208
REMARK   91  A    between atoms: _211  and  _213
REMARK   92  A    between atoms: _213  and  _214
REMARK   93  A    between atoms: _213  and  _216
REMARK   94  A    between atoms: _216  and  _217
REMARK   95  A    between atoms: _220  and  _222
REMARK   96  A    between atoms: _222  and  _223
REMARK   97  A    between atoms: _226  and  _228
REMARK   98  A    between atoms: _228  and  _229
REMARK   99  A    between atoms: _228  and  _231
REMARK  100  A    between atoms: _231  and  _232
REMARK  101  A    between atoms: _242  and  _244
REMARK  102  A    between atoms: _244  and  _245
REMARK  103  A    between atoms: _244  and  _247
REMARK  104  A    between atoms: _247  and  _248
REMARK  105  A    between atoms: _251  and  _253
REMARK  106  A    between atoms: _253  and  _254
REMARK  107  A    between atoms: _253  and  _256
REMARK  108  A    between atoms: _256  and  _257
REMARK  109  A    between atoms: _260  and  _262
REMARK  110  A    between atoms: _262  and  _263
REMARK  111  A    between atoms: _262  and  _265
REMARK  112  A    between atoms: _265  and  _266
REMARK  113  A    between atoms: _266  and  _267
REMARK  114  A    between atoms: _270  and  _272
REMARK  115  A    between atoms: _272  and  _273
REMARK  116  A    between atoms: _272  and  _275
REMARK  117  A    between atoms: _275  and  _276
REMARK  118  A    between atoms: _281  and  _282
REMARK  119  A    between atoms: _284  and  _286
REMARK  120  A    between atoms: _286  and  _287
REMARK  121  A    between atoms: _286  and  _289
REMARK  122  A    between atoms: _289  and  _290
REMARK  123  A    between atoms: _293  and  _294
REMARK  124  A    between atoms: _299  and  _301
REMARK  125  A    between atoms: _301  and  _302
REMARK  126  A    between atoms: _301  and  _304
REMARK  127  A    between atoms: _304  and  _305
REMARK  128  A    between atoms: _305  and  _306
REMARK  129  A    between atoms: _306  and  _307
REMARK  130  A    between atoms: _307  and  _308
REMARK  131  A    between atoms: _312  and  _314
REMARK  132  A    between atoms: _314  and  _315
REMARK  133  A    between atoms: _314  and  _317
REMARK  134  A    between atoms: _317  and  _318
REMARK  135  A    between atoms: _318  and  _319
REMARK  136  A    between atoms: _321  and  _323
REMARK  137  A    between atoms: _323  and  _324
REMARK  138  A    between atoms: _323  and  _326
REMARK  139  A    between atoms: _326  and  _327
REMARK  140  A    between atoms: _330  and  _332
REMARK  141  A    between atoms: _332  and  _333
REMARK  142  A    between atoms: _332  and  _335
REMARK  143  A    between atoms: _335  and  _336
REMARK  144  A    between atoms: _338  and  _340
REMARK  145  A    between atoms: _340  and  _341
REMARK  146  A    between atoms: _340  and  _343
REMARK  147  A    between atoms: _343  and  _344
REMARK  148  A    between atoms: _347  and  _349
REMARK  149  A    between atoms: _349  and  _350
REMARK  150  A    between atoms: _349  and  _352
REMARK  151  A    between atoms: _352  and  _353
REMARK  152  A    between atoms: _353  and  _354
REMARK  153  A    between atoms: _357  and  _359
REMARK  154  A    between atoms: _359  and  _360
REMARK  155  A    between atoms: _363  and  _364
REMARK  156  A    between atoms: _369  and  _371
REMARK  157  A    between atoms: _371  and  _372
REMARK  158  A    between atoms: _375  and  _377
REMARK  159  A    between atoms: _377  and  _378
REMARK  160  A    between atoms: _377  and  _380
REMARK  161  A    between atoms: _380  and  _381
REMARK  162  A    between atoms: _381  and  _382
REMARK  163  A    between atoms: _385  and  _387
REMARK  164  A    between atoms: _387  and  _388
REMARK  165  A    between atoms: _387  and  _390
REMARK  166  A    between atoms: _390  and  _391
REMARK  167  A    between atoms: _396  and  _398
REMARK  168  A    between atoms: _398  and  _399
REMARK  169  A    between atoms: _398  and  _401
REMARK  170  A    between atoms: _401  and  _402
REMARK  171  A    between atoms: _405  and  _407
REMARK  172  A    between atoms: _407  and  _408
REMARK  173  A    between atoms: _407  and  _410
REMARK  174  A    between atoms: _410  and  _411
REMARK  175  A    between atoms: _414  and  _416
REMARK  176  A    between atoms: _416  and  _417
REMARK  177  A    between atoms: _416  and  _419
REMARK  178  A    between atoms: _419  and  _420
REMARK  179  A    between atoms: _426  and  _428
REMARK  180  A    between atoms: _428  and  _429
REMARK  181  A    between atoms: _428  and  _431
REMARK  182  A    between atoms: _434  and  _436
REMARK  183  A    between atoms: _436  and  _437
REMARK  184  A    between atoms: _436  and  _439
REMARK  185  A    between atoms: _439  and  _440
REMARK  186  A    between atoms: _443  and  _445
REMARK  187  A    between atoms: _445  and  _446
REMARK  188  A    between atoms: _449  and  _451
REMARK  189  A    between atoms: _451  and  _452
REMARK  190  A    between atoms: _451  and  _454
REMARK  191  A    between atoms: _454  and  _455
REMARK  192  A    between atoms: _460  and  _462
REMARK  193  A    between atoms: _462  and  _463
REMARK  194  A    between atoms: _462  and  _465
REMARK  195  A    between atoms: _465  and  _466
REMARK  196  A    between atoms: _466  and  _467
REMARK  197  A    between atoms: _467  and  _468
REMARK  198  A    between atoms: _468  and  _469
REMARK  199  A    between atoms: _473  and  _475
REMARK  200  A    between atoms: _475  and  _476
REMARK  201  A    between atoms: _475  and  _478
REMARK  202  A    between atoms: _478  and  _479
REMARK  203  A    between atoms: _482  and  _484
REMARK  204  A    between atoms: _484  and  _485
REMARK  205  A    between atoms: _487  and  _489
REMARK  206  A    between atoms: _489  and  _490
REMARK  207  A    between atoms: _489  and  _492
REMARK  208  A    between atoms: _492  and  _493
REMARK  209  A    between atoms: _498  and  _499
REMARK  210  A    between atoms: _501  and  _503
REMARK  211  A    between atoms: _503  and  _504
REMARK  212  A    between atoms: _503  and  _506
REMARK  213  A    between atoms: _506  and  _507
REMARK  214  A    between atoms: _512  and  _513
REMARK  215  A    between atoms: _515  and  _517
REMARK  216  A    between atoms: _517  and  _518
REMARK  217  A    between atoms: _517  and  _520
REMARK  218  A    between atoms: _520  and  _521
REMARK  219  A    between atoms: _524  and  _526
REMARK  220  A    between atoms: _526  and  _527
REMARK  221  A    between atoms: _526  and  _529
REMARK  222  A    between atoms: _529  and  _530
REMARK  223  A    between atoms: _535  and  _537
REMARK  224  A    between atoms: _537  and  _538
REMARK  225  A    between atoms: _537  and  _540
REMARK  226  A    between atoms: _540  and  _541
REMARK  227  A    between atoms: _546  and  _547
REMARK                            x       y       z     vdW  Elec       q    Type
REMARK                         _______ _______ _______ _____ _____    ______ ____
ROOT
ATOM      1  O   HOH     1      35.264 275.021 157.687  0.00  0.00    +0.000 OA
ENDROOT
TORSDOF 0
REMARK  Name = ../refined-set-2016/4ymh/4ymh_pocket.pdb
REMARK  227 active torsions:
REMARK  status: ('A' for Active; 'I' for Inactive)
REMARK    1  A    between atoms: _1  and  _3
REMARK    2  A    between atoms: _3  and  _4
REMARK    3  A    between atoms: _3  and  _6
REMARK    4  A    between atoms: _6  and  _7
REMARK    5  A    between atoms: _12  and  _14
REMARK    6  A    between atoms: _14  and  _15
REMARK    7  A    between atoms: _14  and  _17
REMARK    8  A    between atoms: _17  and  _18
REMARK    9  A    between atoms: _28  and  _30
REMARK   10  A    between atoms: _30  and  _31
REMARK   11  A    between atoms: _30  and  _33
REMARK   12  A    between atoms: _33  and  _34
REMARK   13  A    between atoms: _37  and  _39
REMARK   14  A    between atoms: _39  and  _40
REMARK   15  A    between atoms: _39  and  _42
REMARK   16  A    between atoms: _42  and  _43
REMARK   17  A    between atoms: _46  and  _48
REMARK   18  A    between atoms: _48  and  _49
REMARK   19  A    between atoms: _52  and  _54
REMARK   20  A    between atoms: _54  and  _55
REMARK   21  A    between atoms: _54  and  _57
REMARK   22  A    between atoms: _57  and  _58
REMARK   23  A    between atoms: _61  and  _63
REMARK   24  A    between atoms: _63  and  _64
REMARK   25  A    between atoms: _63  and  _66
REMARK   26  A    between atoms: _66  and  _67
REMARK   27  A    between atoms: _67  and  _68
REMARK   28  A    between atoms: _68  and  _69
REMARK   29  A    between atoms: _69  and  _70
REMARK   30  A    between atoms: _74  and  _76
REMARK   31  A    between atoms: _76  and  _77
REMARK   32  A    between atoms: _76  and  _79
REMARK   33  A    between atoms: _79  and  _80
REMARK   34  A    between atoms: _80  and  _81
REMARK   35  A    between atoms: _83  and  _85
REMARK   36  A    between atoms: _85  and  _86
REMARK   37  A    between atoms: _85  and  _88
REMARK   38  A    between atoms: _88  and  _89
REMARK   39  A    between atoms: _91  and  _93
REMARK   40  A    between atoms: _93  and  _94
REMARK   41  A    between atoms: _93  and  _96
REMARK   42  A    between atoms: _96  and  _97
REMARK   43  A    between atoms: _99  and  _101
REMARK   44  A    between atoms: _101  and  _102
REMARK   45  A    between atoms: _101  and  _104
REMARK   46  A    between atoms: _104  and  _105
REMARK   47  A    between atoms: _105  and  _106
REMARK   48  A    between atoms: _111  and  _113
REMARK   49  A    between atoms: _113  and  _114
REMARK   50  A    between atoms: _116  and  _118
REMARK   51  A    between atoms: _118  and  _119
REMARK   52  A    between atoms: _118  and  _121
REMARK   53  A    between atoms: _121  and  _122
REMARK   54  A    between atoms: _122  and  _123
REMARK   55  A    between atoms: _125  and  _127
REMARK   56  A    between atoms: _127  and  _128
REMARK   57  A    between atoms: _127  and  _130
REMARK   58  A    between atoms: _130  and  _131
REMARK   59  A    between atoms: _131  and  _132
REMARK   60  A    between atoms: _135  and  _137
REMARK   61  A    between atoms: _137  and  _138
REMARK   62  A    between atoms: _137  and  _140
REMARK   63  A    between atoms: _140  and  _141
REMARK   64  A    between atoms: _144  and  _146
REMARK   65  A    between atoms: _146  and  _147
REMARK   66  A    between atoms: _149  and  _151
REMARK   67  A    between atoms: _151  and  _152
REMARK   68  A    between atoms: _151  and  _154
REMARK   69  A    between atoms: _156  and  _158
REMARK   70  A    between atoms: _158  and  _159
REMARK   71  A    between atoms: _158  and  _161
REMARK   72  A    between atoms: _161  and  _162
REMARK   73  A    between atoms: _167  and  _168
REMARK   74  A    between atoms: _170  and  _172
REMARK   75  A    between atoms: _172  and  _173
REMARK   76  A    between atoms: _172  and  _175
REMARK   77  A    between atoms: _175  and  _176
REMARK   78  A    between atoms: _178  and  _180
REMARK   79  A    between atoms: _180  and  _181
REMARK   80  A    between atoms: _183  and  _185
REMARK   81  A    between atoms: _185  and  _186
REMARK   82  A    between atoms: _185  and  _188
REMARK   83  A    between atoms: _188  and  _189
REMARK   84  A    between atoms: _194  and  _195
REMARK   85  A    between atoms: _197  and  _199
REMARK   86  A    between atoms: _199  and  _200
REMARK   87  A    between atoms: _199  and  _202
REMARK   88  A    between atoms: _202  and  _203
REMARK   89  A    between atoms: _205  and  _207
REMARK   90  A    between atoms: _207  and  _208
REMARK   91  A    between atoms: _211  and  _213
REMARK   92  A    between atoms: _213  and  _214
REMARK   93  A    between atoms: _213  and  _216
REMARK   94  A    between atoms: _216  and  _217
REMARK   95  A    between atoms: _220  and  _222
REMARK   96  A    between atoms: _222  and  _223
REMARK   97  A    between atoms: _226  and  _228
REMARK   98  A    between atoms: _228  and  _229
REMARK   99  A    between atoms: _228  and  _231
REMARK  100  A    between atoms: _231  and  _232
REMARK  101  A    between atoms: _242  and  _244
REMARK  102  A    between atoms: _244  and  _245
REMARK  103  A    between atoms: _244  and  _247
REMARK  104  A    between atoms: _247  and  _248
REMARK  105  A    between atoms: _251  and  _253
REMARK  106  A    between atoms: _253  and  _254
REMARK  107  A    between atoms: _253  and  _256
REMARK  108  A    between atoms: _256  and  _257
REMARK  109  A    between atoms: _260  and  _262
REMARK  110  A    between atoms: _262  and  _263
REMARK  111  A    between atoms: _262  and  _265
REMARK  112  A    between atoms: _265  and  _266
REMARK  113  A    between atoms: _266  and  _267
REMARK  114  A    between atoms: _270  and  _272
REMARK  115  A    between atoms: _272  and  _273
REMARK  116  A    between atoms: _272  and  _275
REMARK  117  A    between atoms: _275  and  _276
REMARK  118  A    between atoms: _281  and  _282
REMARK  119  A    between atoms: _284  and  _286
REMARK  120  A    between atoms: _286  and  _287
REMARK  121  A    between atoms: _286  and  _289
REMARK  122  A    between atoms: _289  and  _290
REMARK  123  A    between atoms: _293  and  _294
REMARK  124  A    between atoms: _299  and  _301
REMARK  125  A    between atoms: _301  and  _302
REMARK  126  A    between atoms: _301  and  _304
REMARK  127  A    between atoms: _304  and  _305
REMARK  128  A    between atoms: _305  and  _306
REMARK  129  A    between atoms: _306  and  _307
REMARK  130  A    between atoms: _307  and  _308
REMARK  131  A    between atoms: _312  and  _314
REMARK  132  A    between atoms: _314  and  _315
REMARK  133  A    between atoms: _314  and  _317
REMARK  134  A    between atoms: _317  and  _318
REMARK  135  A    between atoms: _318  and  _319
REMARK  136  A    between atoms: _321  and  _323
REMARK  137  A    between atoms: _323  and  _324
REMARK  138  A    between atoms: _323  and  _326
REMARK  139  A    between atoms: _326  and  _327
REMARK  140  A    between atoms: _330  and  _332
REMARK  141  A    between atoms: _332  and  _333
REMARK  142  A    between atoms: _332  and  _335
REMARK  143  A    between atoms: _335  and  _336
REMARK  144  A    between atoms: _338  and  _340
REMARK  145  A    between atoms: _340  and  _341
REMARK  146  A    between atoms: _340  and  _343
REMARK  147  A    between atoms: _343  and  _344
REMARK  148  A    between atoms: _347  and  _349
REMARK  149  A    between atoms: _349  and  _350
REMARK  150  A    between atoms: _349  and  _352
REMARK  151  A    between atoms: _352  and  _353
REMARK  152  A    between atoms: _353  and  _354
REMARK  153  A    between atoms: _357  and  _359
REMARK  154  A    between atoms: _359  and  _360
REMARK  155  A    between atoms: _363  and  _364
REMARK  156  A    between atoms: _369  and  _371
REMARK  157  A    between atoms: _371  and  _372
REMARK  158  A    between atoms: _375  and  _377
REMARK  159  A    between atoms: _377  and  _378
REMARK  160  A    between atoms: _377  and  _380
REMARK  161  A    between atoms: _380  and  _381
REMARK  162  A    between atoms: _381  and  _382
REMARK  163  A    between atoms: _385  and  _387
REMARK  164  A    between atoms: _387  and  _388
REMARK  165  A    between atoms: _387  and  _390
REMARK  166  A    between atoms: _390  and  _391
REMARK  167  A    between atoms: _396  and  _398
REMARK  168  A    between atoms: _398  and  _399
REMARK  169  A    between atoms: _398  and  _401
REMARK  170  A    between atoms: _401  and  _402
REMARK  171  A    between atoms: _405  and  _407
REMARK  172  A    between atoms: _407  and  _408
REMARK  173  A    between atoms: _407  and  _410
REMARK  174  A    between atoms: _410  and  _411
REMARK  175  A    between atoms: _414  and  _416
REMARK  176  A    between atoms: _416  and  _417
REMARK  177  A    between atoms: _416  and  _419
REMARK  178  A    between atoms: _419  and  _420
REMARK  179  A    between atoms: _426  and  _428
REMARK  180  A    between atoms: _428  and  _429
REMARK  181  A    between atoms: _428  and  _431
REMARK  182  A    between atoms: _434  and  _436
REMARK  183  A    between atoms: _436  and  _437
REMARK  184  A    between atoms: _436  and  _439
REMARK  185  A    between atoms: _439  and  _440
REMARK  186  A    between atoms: _443  and  _445
REMARK  187  A    between atoms: _445  and  _446
REMARK  188  A    between atoms: _449  and  _451
REMARK  189  A    between atoms: _451  and  _452
REMARK  190  A    between atoms: _451  and  _454
REMARK  191  A    between atoms: _454  and  _455
REMARK  192  A    between atoms: _460  and  _462
REMARK  193  A    between atoms: _462  and  _463
REMARK  194  A    between atoms: _462  and  _465
REMARK  195  A    between atoms: _465  and  _466
REMARK  196  A    between atoms: _466  and  _467
REMARK  197  A    between atoms: _467  and  _468
REMARK  198  A    between atoms: _468  and  _469
REMARK  199  A    between atoms: _473  and  _475
REMARK  200  A    between atoms: _475  and  _476
REMARK  201  A    between atoms: _475  and  _478
REMARK  202  A    between atoms: _478  and  _479
REMARK  203  A    between atoms: _482  and  _484
REMARK  204  A    between atoms: _484  and  _485
REMARK  205  A    between atoms: _487  and  _489
REMARK  206  A    between atoms: _489  and  _490
REMARK  207  A    between atoms: _489  and  _492
REMARK  208  A    between atoms: _492  and  _493
REMARK  209  A    between atoms: _498  and  _499
REMARK  210  A    between atoms: _501  and  _503
REMARK  211  A    between atoms: _503  and  _504
REMARK  212  A    between atoms: _503  and  _506
REMARK  213  A    between atoms: _506  and  _507
REMARK  214  A    between atoms: _512  and  _513
REMARK  215  A    between atoms: _515  and  _517
REMARK  216  A    between atoms: _517  and  _518
REMARK  217  A    between atoms: _517  and  _520
REMARK  218  A    between atoms: _520  and  _521
REMARK  219  A    between atoms: _524  and  _526
REMARK  220  A    between atoms: _526  and  _527
REMARK  221  A    between atoms: _526  and  _529
REMARK  222  A    between atoms: _529  and  _530
REMARK  223  A    between atoms: _535  and  _537
REMARK  224  A    between atoms: _537  and  _538
REMARK  225  A    between atoms: _537  and  _540
REMARK  226  A    between atoms: _540  and  _541
REMARK  227  A    between atoms: _546  and  _547
REMARK                            x       y       z     vdW  Elec       q    Type
REMARK                         _______ _______ _______ _____ _____    ______ ____
ROOT
ATOM      1  O   HOH     1      42.558 265.609 173.622  0.00  0.00    +0.000 OA
ENDROOT
TORSDOF 0
REMARK  Name = ../refined-set-2016/4ymh/4ymh_pocket.pdb
REMARK  227 active torsions:
REMARK  status: ('A' for Active; 'I' for Inactive)
REMARK    1  A    between atoms: _1  and  _3
REMARK    2  A    between atoms: _3  and  _4
REMARK    3  A    between atoms: _3  and  _6
REMARK    4  A    between atoms: _6  and  _7
REMARK    5  A    between atoms: _12  and  _14
REMARK    6  A    between atoms: _14  and  _15
REMARK    7  A    between atoms: _14  and  _17
REMARK    8  A    between atoms: _17  and  _18
REMARK    9  A    between atoms: _28  and  _30
REMARK   10  A    between atoms: _30  and  _31
REMARK   11  A    between atoms: _30  and  _33
REMARK   12  A    between atoms: _33  and  _34
REMARK   13  A    between atoms: _37  and  _39
REMARK   14  A    between atoms: _39  and  _40
REMARK   15  A    between atoms: _39  and  _42
REMARK   16  A    between atoms: _42  and  _43
REMARK   17  A    between atoms: _46  and  _48
REMARK   18  A    between atoms: _48  and  _49
REMARK   19  A    between atoms: _52  and  _54
REMARK   20  A    between atoms: _54  and  _55
REMARK   21  A    between atoms: _54  and  _57
REMARK   22  A    between atoms: _57  and  _58
REMARK   23  A    between atoms: _61  and  _63
REMARK   24  A    between atoms: _63  and  _64
REMARK   25  A    between atoms: _63  and  _66
REMARK   26  A    between atoms: _66  and  _67
REMARK   27  A    between atoms: _67  and  _68
REMARK   28  A    between atoms: _68  and  _69
REMARK   29  A    between atoms: _69  and  _70
REMARK   30  A    between atoms: _74  and  _76
REMARK   31  A    between atoms: _76  and  _77
REMARK   32  A    between atoms: _76  and  _79
REMARK   33  A    between atoms: _79  and  _80
REMARK   34  A    between atoms: _80  and  _81
REMARK   35  A    between atoms: _83  and  _85
REMARK   36  A    between atoms: _85  and  _86
REMARK   37  A    between atoms: _85  and  _88
REMARK   38  A    between atoms: _88  and  _89
REMARK   39  A    between atoms: _91  and  _93
REMARK   40  A    between atoms: _93  and  _94
REMARK   41  A    between atoms: _93  and  _96
REMARK   42  A    between atoms: _96  and  _97
REMARK   43  A    between atoms: _99  and  _101
REMARK   44  A    between atoms: _101  and  _102
REMARK   45  A    between atoms: _101  and  _104
REMARK   46  A    between atoms: _104  and  _105
REMARK   47  A    between atoms: _105  and  _106
REMARK   48  A    between atoms: _111  and  _113
REMARK   49  A    between atoms: _113  and  _114
REMARK   50  A    between atoms: _116  and  _118
REMARK   51  A    between atoms: _118  and  _119
REMARK   52  A    between atoms: _118  and  _121
REMARK   53  A    between atoms: _121  and  _122
REMARK   54  A    between atoms: _122  and  _123
REMARK   55  A    between atoms: _125  and  _127
REMARK   56  A    between atoms: _127  and  _128
REMARK   57  A    between atoms: _127  and  _130
REMARK   58  A    between atoms: _130  and  _131
REMARK   59  A    between atoms: _131  and  _132
REMARK   60  A    between atoms: _135  and  _137
REMARK   61  A    between atoms: _137  and  _138
REMARK   62  A    between atoms: _137  and  _140
REMARK   63  A    between atoms: _140  and  _141
REMARK   64  A    between atoms: _144  and  _146
REMARK   65  A    between atoms: _146  and  _147
REMARK   66  A    between atoms: _149  and  _151
REMARK   67  A    between atoms: _151  and  _152
REMARK   68  A    between atoms: _151  and  _154
REMARK   69  A    between atoms: _156  and  _158
REMARK   70  A    between atoms: _158  and  _159
REMARK   71  A    between atoms: _158  and  _161
REMARK   72  A    between atoms: _161  and  _162
REMARK   73  A    between atoms: _167  and  _168
REMARK   74  A    between atoms: _170  and  _172
REMARK   75  A    between atoms: _172  and  _173
REMARK   76  A    between atoms: _172  and  _175
REMARK   77  A    between atoms: _175  and  _176
REMARK   78  A    between atoms: _178  and  _180
REMARK   79  A    between atoms: _180  and  _181
REMARK   80  A    between atoms: _183  and  _185
REMARK   81  A    between atoms: _185  and  _186
REMARK   82  A    between atoms: _185  and  _188
REMARK   83  A    between atoms: _188  and  _189
REMARK   84  A    between atoms: _194  and  _195
REMARK   85  A    between atoms: _197  and  _199
REMARK   86  A    between atoms: _199  and  _200
REMARK   87  A    between atoms: _199  and  _202
REMARK   88  A    between atoms: _202  and  _203
REMARK   89  A    between atoms: _205  and  _207
REMARK   90  A    between atoms: _207  and  _208
REMARK   91  A    between atoms: _211  and  _213
REMARK   92  A    between atoms: _213  and  _214
REMARK   93  A    between atoms: _213  and  _216
REMARK   94  A    between atoms: _216  and  _217
REMARK   95  A    between atoms: _220  and  _222
REMARK   96  A    between atoms: _222  and  _223
REMARK   97  A    between atoms: _226  and  _228
REMARK   98  A    between atoms: _228  and  _229
REMARK   99  A    between atoms: _228  and  _231
REMARK  100  A    between atoms: _231  and  _232
REMARK  101  A    between atoms: _242  and  _244
REMARK  102  A    between atoms: _244  and  _245
REMARK  103  A    between atoms: _244  and  _247
REMARK  104  A    between atoms: _247  and  _248
REMARK  105  A    between atoms: _251  and  _253
REMARK  106  A    between atoms: _253  and  _254
REMARK  107  A    between atoms: _253  and  _256
REMARK  108  A    between atoms: _256  and  _257
REMARK  109  A    between atoms: _260  and  _262
REMARK  110  A    between atoms: _262  and  _263
REMARK  111  A    between atoms: _262  and  _265
REMARK  112  A    between atoms: _265  and  _266
REMARK  113  A    between atoms: _266  and  _267
REMARK  114  A    between atoms: _270  and  _272
REMARK  115  A    between atoms: _272  and  _273
REMARK  116  A    between atoms: _272  and  _275
REMARK  117  A    between atoms: _275  and  _276
REMARK  118  A    between atoms: _281  and  _282
REMARK  119  A    between atoms: _284  and  _286
REMARK  120  A    between atoms: _286  and  _287
REMARK  121  A    between atoms: _286  and  _289
REMARK  122  A    between atoms: _289  and  _290
REMARK  123  A    between atoms: _293  and  _294
REMARK  124  A    between atoms: _299  and  _301
REMARK  125  A    between atoms: _301  and  _302
REMARK  126  A    between atoms: _301  and  _304
REMARK  127  A    between atoms: _304  and  _305
REMARK  128  A    between atoms: _305  and  _306
REMARK  129  A    between atoms: _306  and  _307
REMARK  130  A    between atoms: _307  and  _308
REMARK  131  A    between atoms: _312  and  _314
REMARK  132  A    between atoms: _314  and  _315
REMARK  133  A    between atoms: _314  and  _317
REMARK  134  A    between atoms: _317  and  _318
REMARK  135  A    between atoms: _318  and  _319
REMARK  136  A    between atoms: _321  and  _323
REMARK  137  A    between atoms: _323  and  _324
REMARK  138  A    between atoms: _323  and  _326
REMARK  139  A    between atoms: _326  and  _327
REMARK  140  A    between atoms: _330  and  _332
REMARK  141  A    between atoms: _332  and  _333
REMARK  142  A    between atoms: _332  and  _335
REMARK  143  A    between atoms: _335  and  _336
REMARK  144  A    between atoms: _338  and  _340
REMARK  145  A    between atoms: _340  and  _341
REMARK  146  A    between atoms: _340  and  _343
REMARK  147  A    between atoms: _343  and  _344
REMARK  148  A    between atoms: _347  and  _349
REMARK  149  A    between atoms: _349  and  _350
REMARK  150  A    between atoms: _349  and  _352
REMARK  151  A    between atoms: _352  and  _353
REMARK  152  A    between atoms: _353  and  _354
REMARK  153  A    between atoms: _357  and  _359
REMARK  154  A    between atoms: _359  and  _360
REMARK  155  A    between atoms: _363  and  _364
REMARK  156  A    between atoms: _369  and  _371
REMARK  157  A    between atoms: _371  and  _372
REMARK  158  A    between atoms: _375  and  _377
REMARK  159  A    between atoms: _377  and  _378
REMARK  160  A    between atoms: _377  and  _380
REMARK  161  A    between atoms: _380  and  _381
REMARK  162  A    between atoms: _381  and  _382
REMARK  163  A    between atoms: _385  and  _387
REMARK  164  A    between atoms: _387  and  _388
REMARK  165  A    between atoms: _387  and  _390
REMARK  166  A    between atoms: _390  and  _391
REMARK  167  A    between atoms: _396  and  _398
REMARK  168  A    between atoms: _398  and  _399
REMARK  169  A    between atoms: _398  and  _401
REMARK  170  A    between atoms: _401  and  _402
REMARK  171  A    between atoms: _405  and  _407
REMARK  172  A    between atoms: _407  and  _408
REMARK  173  A    between atoms: _407  and  _410
REMARK  174  A    between atoms: _410  and  _411
REMARK  175  A    between atoms: _414  and  _416
REMARK  176  A    between atoms: _416  and  _417
REMARK  177  A    between atoms: _416  and  _419
REMARK  178  A    between atoms: _419  and  _420
REMARK  179  A    between atoms: _426  and  _428
REMARK  180  A    between atoms: _428  and  _429
REMARK  181  A    between atoms: _428  and  _431
REMARK  182  A    between atoms: _434  and  _436
REMARK  183  A    between atoms: _436  and  _437
REMARK  184  A    between atoms: _436  and  _439
REMARK  185  A    between atoms: _439  and  _440
REMARK  186  A    between atoms: _443  and  _445
REMARK  187  A    between atoms: _445  and  _446
REMARK  188  A    between atoms: _449  and  _451
REMARK  189  A    between atoms: _451  and  _452
REMARK  190  A    between atoms: _451  and  _454
REMARK  191  A    between atoms: _454  and  _455
REMARK  192  A    between atoms: _460  and  _462
REMARK  193  A    between atoms: _462  and  _463
REMARK  194  A    between atoms: _462  and  _465
REMARK  195  A    between atoms: _465  and  _466
REMARK  196  A    between atoms: _466  and  _467
REMARK  197  A    between atoms: _467  and  _468
REMARK  198  A    between atoms: _468  and  _469
REMARK  199  A    between atoms: _473  and  _475
REMARK  200  A    between atoms: _475  and  _476
REMARK  201  A    between atoms: _475  and  _478
REMARK  202  A    between atoms: _478  and  _479
REMARK  203  A    between atoms: _482  and  _484
REMARK  204  A    between atoms: _484  and  _485
REMARK  205  A    between atoms: _487  and  _489
REMARK  206  A    between atoms: _489  and  _490
REMARK  207  A    between atoms: _489  and  _492
REMARK  208  A    between atoms: _492  and  _493
REMARK  209  A    between atoms: _498  and  _499
REMARK  210  A    between atoms: _501  and  _503
REMARK  211  A    between atoms: _503  and  _504
REMARK  212  A    between atoms: _503  and  _506
REMARK  213  A    between atoms: _506  and  _507
REMARK  214  A    between atoms: _512  and  _513
REMARK  215  A    between atoms: _515  and  _517
REMARK  216  A    between atoms: _517  and  _518
REMARK  217  A    between atoms: _517  and  _520
REMARK  218  A    between atoms: _520  and  _521
REMARK  219  A    between atoms: _524  and  _526
REMARK  220  A    between atoms: _526  and  _527
REMARK  221  A    between atoms: _526  and  _529
REMARK  222  A    between atoms: _529  and  _530
REMARK  223  A    between atoms: _535  and  _537
REMARK  224  A    between atoms: _537  and  _538
REMARK  225  A    between atoms: _537  and  _540
REMARK  226  A    between atoms: _540  and  _541
REMARK  227  A    between atoms: _546  and  _547
REMARK                            x       y       z     vdW  Elec       q    Type
REMARK                         _______ _______ _______ _____ _____    ______ ____
ROOT
ATOM      1  O   HOH     1      37.663 275.941 172.090  0.00  0.00    +0.000 OA
ENDROOT
TORSDOF 0
REMARK  Name = ../refined-set-2016/4ymh/4ymh_pocket.pdb
REMARK  227 active torsions:
REMARK  status: ('A' for Active; 'I' for Inactive)
REMARK    1  A    between atoms: _1  and  _3
REMARK    2  A    between atoms: _3  and  _4
REMARK    3  A    between atoms: _3  and  _6
REMARK    4  A    between atoms: _6  and  _7
REMARK    5  A    between atoms: _12  and  _14
REMARK    6  A    between atoms: _14  and  _15
REMARK    7  A    between atoms: _14  and  _17
REMARK    8  A    between atoms: _17  and  _18
REMARK    9  A    between atoms: _28  and  _30
REMARK   10  A    between atoms: _30  and  _31
REMARK   11  A    between atoms: _30  and  _33
REMARK   12  A    between atoms: _33  and  _34
REMARK   13  A    between atoms: _37  and  _39
REMARK   14  A    between atoms: _39  and  _40
REMARK   15  A    between atoms: _39  and  _42
REMARK   16  A    between atoms: _42  and  _43
REMARK   17  A    between atoms: _46  and  _48
REMARK   18  A    between atoms: _48  and  _49
REMARK   19  A    between atoms: _52  and  _54
REMARK   20  A    between atoms: _54  and  _55
REMARK   21  A    between atoms: _54  and  _57
REMARK   22  A    between atoms: _57  and  _58
REMARK   23  A    between atoms: _61  and  _63
REMARK   24  A    between atoms: _63  and  _64
REMARK   25  A    between atoms: _63  and  _66
REMARK   26  A    between atoms: _66  and  _67
REMARK   27  A    between atoms: _67  and  _68
REMARK   28  A    between atoms: _68  and  _69
REMARK   29  A    between atoms: _69  and  _70
REMARK   30  A    between atoms: _74  and  _76
REMARK   31  A    between atoms: _76  and  _77
REMARK   32  A    between atoms: _76  and  _79
REMARK   33  A    between atoms: _79  and  _80
REMARK   34  A    between atoms: _80  and  _81
REMARK   35  A    between atoms: _83  and  _85
REMARK   36  A    between atoms: _85  and  _86
REMARK   37  A    between atoms: _85  and  _88
REMARK   38  A    between atoms: _88  and  _89
REMARK   39  A    between atoms: _91  and  _93
REMARK   40  A    between atoms: _93  and  _94
REMARK   41  A    between atoms: _93  and  _96
REMARK   42  A    between atoms: _96  and  _97
REMARK   43  A    between atoms: _99  and  _101
REMARK   44  A    between atoms: _101  and  _102
REMARK   45  A    between atoms: _101  and  _104
REMARK   46  A    between atoms: _104  and  _105
REMARK   47  A    between atoms: _105  and  _106
REMARK   48  A    between atoms: _111  and  _113
REMARK   49  A    between atoms: _113  and  _114
REMARK   50  A    between atoms: _116  and  _118
REMARK   51  A    between atoms: _118  and  _119
REMARK   52  A    between atoms: _118  and  _121
REMARK   53  A    between atoms: _121  and  _122
REMARK   54  A    between atoms: _122  and  _123
REMARK   55  A    between atoms: _125  and  _127
REMARK   56  A    between atoms: _127  and  _128
REMARK   57  A    between atoms: _127  and  _130
REMARK   58  A    between atoms: _130  and  _131
REMARK   59  A    between atoms: _131  and  _132
REMARK   60  A    between atoms: _135  and  _137
REMARK   61  A    between atoms: _137  and  _138
REMARK   62  A    between atoms: _137  and  _140
REMARK   63  A    between atoms: _140  and  _141
REMARK   64  A    between atoms: _144  and  _146
REMARK   65  A    between atoms: _146  and  _147
REMARK   66  A    between atoms: _149  and  _151
REMARK   67  A    between atoms: _151  and  _152
REMARK   68  A    between atoms: _151  and  _154
REMARK   69  A    between atoms: _156  and  _158
REMARK   70  A    between atoms: _158  and  _159
REMARK   71  A    between atoms: _158  and  _161
REMARK   72  A    between atoms: _161  and  _162
REMARK   73  A    between atoms: _167  and  _168
REMARK   74  A    between atoms: _170  and  _172
REMARK   75  A    between atoms: _172  and  _173
REMARK   76  A    between atoms: _172  and  _175
REMARK   77  A    between atoms: _175  and  _176
REMARK   78  A    between atoms: _178  and  _180
REMARK   79  A    between atoms: _180  and  _181
REMARK   80  A    between atoms: _183  and  _185
REMARK   81  A    between atoms: _185  and  _186
REMARK   82  A    between atoms: _185  and  _188
REMARK   83  A    between atoms: _188  and  _189
REMARK   84  A    between atoms: _194  and  _195
REMARK   85  A    between atoms: _197  and  _199
REMARK   86  A    between atoms: _199  and  _200
REMARK   87  A    between atoms: _199  and  _202
REMARK   88  A    between atoms: _202  and  _203
REMARK   89  A    between atoms: _205  and  _207
REMARK   90  A    between atoms: _207  and  _208
REMARK   91  A    between atoms: _211  and  _213
REMARK   92  A    between atoms: _213  and  _214
REMARK   93  A    between atoms: _213  and  _216
REMARK   94  A    between atoms: _216  and  _217
REMARK   95  A    between atoms: _220  and  _222
REMARK   96  A    between atoms: _222  and  _223
REMARK   97  A    between atoms: _226  and  _228
REMARK   98  A    between atoms: _228  and  _229
REMARK   99  A    between atoms: _228  and  _231
REMARK  100  A    between atoms: _231  and  _232
REMARK  101  A    between atoms: _242  and  _244
REMARK  102  A    between atoms: _244  and  _245
REMARK  103  A    between atoms: _244  and  _247
REMARK  104  A    between atoms: _247  and  _248
REMARK  105  A    between atoms: _251  and  _253
REMARK  106  A    between atoms: _253  and  _254
REMARK  107  A    between atoms: _253  and  _256
REMARK  108  A    between atoms: _256  and  _257
REMARK  109  A    between atoms: _260  and  _262
REMARK  110  A    between atoms: _262  and  _263
REMARK  111  A    between atoms: _262  and  _265
REMARK  112  A    between atoms: _265  and  _266
REMARK  113  A    between atoms: _266  and  _267
REMARK  114  A    between atoms: _270  and  _272
REMARK  115  A    between atoms: _272  and  _273
REMARK  116  A    between atoms: _272  and  _275
REMARK  117  A    between atoms: _275  and  _276
REMARK  118  A    between atoms: _281  and  _282
REMARK  119  A    between atoms: _284  and  _286
REMARK  120  A    between atoms: _286  and  _287
REMARK  121  A    between atoms: _286  and  _289
REMARK  122  A    between atoms: _289  and  _290
REMARK  123  A    between atoms: _293  and  _294
REMARK  124  A    between atoms: _299  and  _301
REMARK  125  A    between atoms: _301  and  _302
REMARK  126  A    between atoms: _301  and  _304
REMARK  127  A    between atoms: _304  and  _305
REMARK  128  A    between atoms: _305  and  _306
REMARK  129  A    between atoms: _306  and  _307
REMARK  130  A    between atoms: _307  and  _308
REMARK  131  A    between atoms: _312  and  _314
REMARK  132  A    between atoms: _314  and  _315
REMARK  133  A    between atoms: _314  and  _317
REMARK  134  A    between atoms: _317  and  _318
REMARK  135  A    between atoms: _318  and  _319
REMARK  136  A    between atoms: _321  and  _323
REMARK  137  A    between atoms: _323  and  _324
REMARK  138  A    between atoms: _323  and  _326
REMARK  139  A    between atoms: _326  and  _327
REMARK  140  A    between atoms: _330  and  _332
REMARK  141  A    between atoms: _332  and  _333
REMARK  142  A    between atoms: _332  and  _335
REMARK  143  A    between atoms: _335  and  _336
REMARK  144  A    between atoms: _338  and  _340
REMARK  145  A    between atoms: _340  and  _341
REMARK  146  A    between atoms: _340  and  _343
REMARK  147  A    between atoms: _343  and  _344
REMARK  148  A    between atoms: _347  and  _349
REMARK  149  A    between atoms: _349  and  _350
REMARK  150  A    between atoms: _349  and  _352
REMARK  151  A    between atoms: _352  and  _353
REMARK  152  A    between atoms: _353  and  _354
REMARK  153  A    between atoms: _357  and  _359
REMARK  154  A    between atoms: _359  and  _360
REMARK  155  A    between atoms: _363  and  _364
REMARK  156  A    between atoms: _369  and  _371
REMARK  157  A    between atoms: _371  and  _372
REMARK  158  A    between atoms: _375  and  _377
REMARK  159  A    between atoms: _377  and  _378
REMARK  160  A    between atoms: _377  and  _380
REMARK  161  A    between atoms: _380  and  _381
REMARK  162  A    between atoms: _381  and  _382
REMARK  163  A    between atoms: _385  and  _387
REMARK  164  A    between atoms: _387  and  _388
REMARK  165  A    between atoms: _387  and  _390
REMARK  166  A    between atoms: _390  and  _391
REMARK  167  A    between atoms: _396  and  _398
REMARK  168  A    between atoms: _398  and  _399
REMARK  169  A    between atoms: _398  and  _401
REMARK  170  A    between atoms: _401  and  _402
REMARK  171  A    between atoms: _405  and  _407
REMARK  172  A    between atoms: _407  and  _408
REMARK  173  A    between atoms: _407  and  _410
REMARK  174  A    between atoms: _410  and  _411
REMARK  175  A    between atoms: _414  and  _416
REMARK  176  A    between atoms: _416  and  _417
REMARK  177  A    between atoms: _416  and  _419
REMARK  178  A    between atoms: _419  and  _420
REMARK  179  A    between atoms: _426  and  _428
REMARK  180  A    between atoms: _428  and  _429
REMARK  181  A    between atoms: _428  and  _431
REMARK  182  A    between atoms: _434  and  _436
REMARK  183  A    between atoms: _436  and  _437
REMARK  184  A    between atoms: _436  and  _439
REMARK  185  A    between atoms: _439  and  _440
REMARK  186  A    between atoms: _443  and  _445
REMARK  187  A    between atoms: _445  and  _446
REMARK  188  A    between atoms: _449  and  _451
REMARK  189  A    between atoms: _451  and  _452
REMARK  190  A    between atoms: _451  and  _454
REMARK  191  A    between atoms: _454  and  _455
REMARK  192  A    between atoms: _460  and  _462
REMARK  193  A    between atoms: _462  and  _463
REMARK  194  A    between atoms: _462  and  _465
REMARK  195  A    between atoms: _465  and  _466
REMARK  196  A    between atoms: _466  and  _467
REMARK  197  A    between atoms: _467  and  _468
REMARK  198  A    between atoms: _468  and  _469
REMARK  199  A    between atoms: _473  and  _475
REMARK  200  A    between atoms: _475  and  _476
REMARK  201  A    between atoms: _475  and  _478
REMARK  202  A    between atoms: _478  and  _479
REMARK  203  A    between atoms: _482  and  _484
REMARK  204  A    between atoms: _484  and  _485
REMARK  205  A    between atoms: _487  and  _489
REMARK  206  A    between atoms: _489  and  _490
REMARK  207  A    between atoms: _489  and  _492
REMARK  208  A    between atoms: _492  and  _493
REMARK  209  A    between atoms: _498  and  _499
REMARK  210  A    between atoms: _501  and  _503
REMARK  211  A    between atoms: _503  and  _504
REMARK  212  A    between atoms: _503  and  _506
REMARK  213  A    between atoms: _506  and  _507
REMARK  214  A    between atoms: _512  and  _513
REMARK  215  A    between atoms: _515  and  _517
REMARK  216  A    between atoms: _517  and  _518
REMARK  217  A    between atoms: _517  and  _520
REMARK  218  A    between atoms: _520  and  _521
REMARK  219  A    between atoms: _524  and  _526
REMARK  220  A    between atoms: _526  and  _527
REMARK  221  A    between atoms: _526  and  _529
REMARK  222  A    between atoms: _529  and  _530
REMARK  223  A    between atoms: _535  and  _537
REMARK  224  A    between atoms: _537  and  _538
REMARK  225  A    between atoms: _537  and  _540
REMARK  226  A    between atoms: _540  and  _541
REMARK  227  A    between atoms: _546  and  _547
REMARK                            x       y       z     vdW  Elec       q    Type
REMARK                         _______ _______ _______ _____ _____    ______ ____
ROOT
ATOM      1  O   HOH     1      45.778 267.025 163.593  0.00  0.00    +0.000 OA
ENDROOT
TORSDOF 0
REMARK  Name = ../refined-set-2016/4ymh/4ymh_pocket.pdb
REMARK  227 active torsions:
REMARK  status: ('A' for Active; 'I' for Inactive)
REMARK    1  A    between atoms: _1  and  _3
REMARK    2  A    between atoms: _3  and  _4
REMARK    3  A    between atoms: _3  and  _6
REMARK    4  A    between atoms: _6  and  _7
REMARK    5  A    between atoms: _12  and  _14
REMARK    6  A    between atoms: _14  and  _15
REMARK    7  A    between atoms: _14  and  _17
REMARK    8  A    between atoms: _17  and  _18
REMARK    9  A    between atoms: _28  and  _30
REMARK   10  A    between atoms: _30  and  _31
REMARK   11  A    between atoms: _30  and  _33
REMARK   12  A    between atoms: _33  and  _34
REMARK   13  A    between atoms: _37  and  _39
REMARK   14  A    between atoms: _39  and  _40
REMARK   15  A    between atoms: _39  and  _42
REMARK   16  A    between atoms: _42  and  _43
REMARK   17  A    between atoms: _46  and  _48
REMARK   18  A    between atoms: _48  and  _49
REMARK   19  A    between atoms: _52  and  _54
REMARK   20  A    between atoms: _54  and  _55
REMARK   21  A    between atoms: _54  and  _57
REMARK   22  A    between atoms: _57  and  _58
REMARK   23  A    between atoms: _61  and  _63
REMARK   24  A    between atoms: _63  and  _64
REMARK   25  A    between atoms: _63  and  _66
REMARK   26  A    between atoms: _66  and  _67
REMARK   27  A    between atoms: _67  and  _68
REMARK   28  A    between atoms: _68  and  _69
REMARK   29  A    between atoms: _69  and  _70
REMARK   30  A    between atoms: _74  and  _76
REMARK   31  A    between atoms: _76  and  _77
REMARK   32  A    between atoms: _76  and  _79
REMARK   33  A    between atoms: _79  and  _80
REMARK   34  A    between atoms: _80  and  _81
REMARK   35  A    between atoms: _83  and  _85
REMARK   36  A    between atoms: _85  and  _86
REMARK   37  A    between atoms: _85  and  _88
REMARK   38  A    between atoms: _88  and  _89
REMARK   39  A    between atoms: _91  and  _93
REMARK   40  A    between atoms: _93  and  _94
REMARK   41  A    between atoms: _93  and  _96
REMARK   42  A    between atoms: _96  and  _97
REMARK   43  A    between atoms: _99  and  _101
REMARK   44  A    between atoms: _101  and  _102
REMARK   45  A    between atoms: _101  and  _104
REMARK   46  A    between atoms: _104  and  _105
REMARK   47  A    between atoms: _105  and  _106
REMARK   48  A    between atoms: _111  and  _113
REMARK   49  A    between atoms: _113  and  _114
REMARK   50  A    between atoms: _116  and  _118
REMARK   51  A    between atoms: _118  and  _119
REMARK   52  A    between atoms: _118  and  _121
REMARK   53  A    between atoms: _121  and  _122
REMARK   54  A    between atoms: _122  and  _123
REMARK   55  A    between atoms: _125  and  _127
REMARK   56  A    between atoms: _127  and  _128
REMARK   57  A    between atoms: _127  and  _130
REMARK   58  A    between atoms: _130  and  _131
REMARK   59  A    between atoms: _131  and  _132
REMARK   60  A    between atoms: _135  and  _137
REMARK   61  A    between atoms: _137  and  _138
REMARK   62  A    between atoms: _137  and  _140
REMARK   63  A    between atoms: _140  and  _141
REMARK   64  A    between atoms: _144  and  _146
REMARK   65  A    between atoms: _146  and  _147
REMARK   66  A    between atoms: _149  and  _151
REMARK   67  A    between atoms: _151  and  _152
REMARK   68  A    between atoms: _151  and  _154
REMARK   69  A    between atoms: _156  and  _158
REMARK   70  A    between atoms: _158  and  _159
REMARK   71  A    between atoms: _158  and  _161
REMARK   72  A    between atoms: _161  and  _162
REMARK   73  A    between atoms: _167  and  _168
REMARK   74  A    between atoms: _170  and  _172
REMARK   75  A    between atoms: _172  and  _173
REMARK   76  A    between atoms: _172  and  _175
REMARK   77  A    between atoms: _175  and  _176
REMARK   78  A    between atoms: _178  and  _180
REMARK   79  A    between atoms: _180  and  _181
REMARK   80  A    between atoms: _183  and  _185
REMARK   81  A    between atoms: _185  and  _186
REMARK   82  A    between atoms: _185  and  _188
REMARK   83  A    between atoms: _188  and  _189
REMARK   84  A    between atoms: _194  and  _195
REMARK   85  A    between atoms: _197  and  _199
REMARK   86  A    between atoms: _199  and  _200
REMARK   87  A    between atoms: _199  and  _202
REMARK   88  A    between atoms: _202  and  _203
REMARK   89  A    between atoms: _205  and  _207
REMARK   90  A    between atoms: _207  and  _208
REMARK   91  A    between atoms: _211  and  _213
REMARK   92  A    between atoms: _213  and  _214
REMARK   93  A    between atoms: _213  and  _216
REMARK   94  A    between atoms: _216  and  _217
REMARK   95  A    between atoms: _220  and  _222
REMARK   96  A    between atoms: _222  and  _223
REMARK   97  A    between atoms: _226  and  _228
REMARK   98  A    between atoms: _228  and  _229
REMARK   99  A    between atoms: _228  and  _231
REMARK  100  A    between atoms: _231  and  _232
REMARK  101  A    between atoms: _242  and  _244
REMARK  102  A    between atoms: _244  and  _245
REMARK  103  A    between atoms: _244  and  _247
REMARK  104  A    between atoms: _247  and  _248
REMARK  105  A    between atoms: _251  and  _253
REMARK  106  A    between atoms: _253  and  _254
REMARK  107  A    between atoms: _253  and  _256
REMARK  108  A    between atoms: _256  and  _257
REMARK  109  A    between atoms: _260  and  _262
REMARK  110  A    between atoms: _262  and  _263
REMARK  111  A    between atoms: _262  and  _265
REMARK  112  A    between atoms: _265  and  _266
REMARK  113  A    between atoms: _266  and  _267
REMARK  114  A    between atoms: _270  and  _272
REMARK  115  A    between atoms: _272  and  _273
REMARK  116  A    between atoms: _272  and  _275
REMARK  117  A    between atoms: _275  and  _276
REMARK  118  A    between atoms: _281  and  _282
REMARK  119  A    between atoms: _284  and  _286
REMARK  120  A    between atoms: _286  and  _287
REMARK  121  A    between atoms: _286  and  _289
REMARK  122  A    between atoms: _289  and  _290
REMARK  123  A    between atoms: _293  and  _294
REMARK  124  A    between atoms: _299  and  _301
REMARK  125  A    between atoms: _301  and  _302
REMARK  126  A    between atoms: _301  and  _304
REMARK  127  A    between atoms: _304  and  _305
REMARK  128  A    between atoms: _305  and  _306
REMARK  129  A    between atoms: _306  and  _307
REMARK  130  A    between atoms: _307  and  _308
REMARK  131  A    between atoms: _312  and  _314
REMARK  132  A    between atoms: _314  and  _315
REMARK  133  A    between atoms: _314  and  _317
REMARK  134  A    between atoms: _317  and  _318
REMARK  135  A    between atoms: _318  and  _319
REMARK  136  A    between atoms: _321  and  _323
REMARK  137  A    between atoms: _323  and  _324
REMARK  138  A    between atoms: _323  and  _326
REMARK  139  A    between atoms: _326  and  _327
REMARK  140  A    between atoms: _330  and  _332
REMARK  141  A    between atoms: _332  and  _333
REMARK  142  A    between atoms: _332  and  _335
REMARK  143  A    between atoms: _335  and  _336
REMARK  144  A    between atoms: _338  and  _340
REMARK  145  A    between atoms: _340  and  _341
REMARK  146  A    between atoms: _340  and  _343
REMARK  147  A    between atoms: _343  and  _344
REMARK  148  A    between atoms: _347  and  _349
REMARK  149  A    between atoms: _349  and  _350
REMARK  150  A    between atoms: _349  and  _352
REMARK  151  A    between atoms: _352  and  _353
REMARK  152  A    between atoms: _353  and  _354
REMARK  153  A    between atoms: _357  and  _359
REMARK  154  A    between atoms: _359  and  _360
REMARK  155  A    between atoms: _363  and  _364
REMARK  156  A    between atoms: _369  and  _371
REMARK  157  A    between atoms: _371  and  _372
REMARK  158  A    between atoms: _375  and  _377
REMARK  159  A    between atoms: _377  and  _378
REMARK  160  A    between atoms: _377  and  _380
REMARK  161  A    between atoms: _380  and  _381
REMARK  162  A    between atoms: _381  and  _382
REMARK  163  A    between atoms: _385  and  _387
REMARK  164  A    between atoms: _387  and  _388
REMARK  165  A    between atoms: _387  and  _390
REMARK  166  A    between atoms: _390  and  _391
REMARK  167  A    between atoms: _396  and  _398
REMARK  168  A    between atoms: _398  and  _399
REMARK  169  A    between atoms: _398  and  _401
REMARK  170  A    between atoms: _401  and  _402
REMARK  171  A    between atoms: _405  and  _407
REMARK  172  A    between atoms: _407  and  _408
REMARK  173  A    between atoms: _407  and  _410
REMARK  174  A    between atoms: _410  and  _411
REMARK  175  A    between atoms: _414  and  _416
REMARK  176  A    between atoms: _416  and  _417
REMARK  177  A    between atoms: _416  and  _419
REMARK  178  A    between atoms: _419  and  _420
REMARK  179  A    between atoms: _426  and  _428
REMARK  180  A    between atoms: _428  and  _429
REMARK  181  A    between atoms: _428  and  _431
REMARK  182  A    between atoms: _434  and  _436
REMARK  183  A    between atoms: _436  and  _437
REMARK  184  A    between atoms: _436  and  _439
REMARK  185  A    between atoms: _439  and  _440
REMARK  186  A    between atoms: _443  and  _445
REMARK  187  A    between atoms: _445  and  _446
REMARK  188  A    between atoms: _449  and  _451
REMARK  189  A    between atoms: _451  and  _452
REMARK  190  A    between atoms: _451  and  _454
REMARK  191  A    between atoms: _454  and  _455
REMARK  192  A    between atoms: _460  and  _462
REMARK  193  A    between atoms: _462  and  _463
REMARK  194  A    between atoms: _462  and  _465
REMARK  195  A    between atoms: _465  and  _466
REMARK  196  A    between atoms: _466  and  _467
REMARK  197  A    between atoms: _467  and  _468
REMARK  198  A    between atoms: _468  and  _469
REMARK  199  A    between atoms: _473  and  _475
REMARK  200  A    between atoms: _475  and  _476
REMARK  201  A    between atoms: _475  and  _478
REMARK  202  A    between atoms: _478  and  _479
REMARK  203  A    between atoms: _482  and  _484
REMARK  204  A    between atoms: _484  and  _485
REMARK  205  A    between atoms: _487  and  _489
REMARK  206  A    between atoms: _489  and  _490
REMARK  207  A    between atoms: _489  and  _492
REMARK  208  A    between atoms: _492  and  _493
REMARK  209  A    between atoms: _498  and  _499
REMARK  210  A    between atoms: _501  and  _503
REMARK  211  A    between atoms: _503  and  _504
REMARK  212  A    between atoms: _503  and  _506
REMARK  213  A    between atoms: _506  and  _507
REMARK  214  A    between atoms: _512  and  _513
REMARK  215  A    between atoms: _515  and  _517
REMARK  216  A    between atoms: _517  and  _518
REMARK  217  A    between atoms: _517  and  _520
REMARK  218  A    between atoms: _520  and  _521
REMARK  219  A    between atoms: _524  and  _526
REMARK  220  A    between atoms: _526  and  _527
REMARK  221  A    between atoms: _526  and  _529
REMARK  222  A    between atoms: _529  and  _530
REMARK  223  A    between atoms: _535  and  _537
REMARK  224  A    between atoms: _537  and  _538
REMARK  225  A    between atoms: _537  and  _540
REMARK  226  A    between atoms: _540  and  _541
REMARK  227  A    between atoms: _546  and  _547
REMARK                            x       y       z     vdW  Elec       q    Type
REMARK                         _______ _______ _______ _____ _____    ______ ____
ROOT
ATOM      1  O   HOH     1      32.518 274.365 161.221  0.00  0.00    +0.000 OA
ENDROOT
TORSDOF 0
REMARK  Name = ../refined-set-2016/4ymh/4ymh_pocket.pdb
REMARK  227 active torsions:
REMARK  status: ('A' for Active; 'I' for Inactive)
REMARK    1  A    between atoms: _1  and  _3
REMARK    2  A    between atoms: _3  and  _4
REMARK    3  A    between atoms: _3  and  _6
REMARK    4  A    between atoms: _6  and  _7
REMARK    5  A    between atoms: _12  and  _14
REMARK    6  A    between atoms: _14  and  _15
REMARK    7  A    between atoms: _14  and  _17
REMARK    8  A    between atoms: _17  and  _18
REMARK    9  A    between atoms: _28  and  _30
REMARK   10  A    between atoms: _30  and  _31
REMARK   11  A    between atoms: _30  and  _33
REMARK   12  A    between atoms: _33  and  _34
REMARK   13  A    between atoms: _37  and  _39
REMARK   14  A    between atoms: _39  and  _40
REMARK   15  A    between atoms: _39  and  _42
REMARK   16  A    between atoms: _42  and  _43
REMARK   17  A    between atoms: _46  and  _48
REMARK   18  A    between atoms: _48  and  _49
REMARK   19  A    between atoms: _52  and  _54
REMARK   20  A    between atoms: _54  and  _55
REMARK   21  A    between atoms: _54  and  _57
REMARK   22  A    between atoms: _57  and  _58
REMARK   23  A    between atoms: _61  and  _63
REMARK   24  A    between atoms: _63  and  _64
REMARK   25  A    between atoms: _63  and  _66
REMARK   26  A    between atoms: _66  and  _67
REMARK   27  A    between atoms: _67  and  _68
REMARK   28  A    between atoms: _68  and  _69
REMARK   29  A    between atoms: _69  and  _70
REMARK   30  A    between atoms: _74  and  _76
REMARK   31  A    between atoms: _76  and  _77
REMARK   32  A    between atoms: _76  and  _79
REMARK   33  A    between atoms: _79  and  _80
REMARK   34  A    between atoms: _80  and  _81
REMARK   35  A    between atoms: _83  and  _85
REMARK   36  A    between atoms: _85  and  _86
REMARK   37  A    between atoms: _85  and  _88
REMARK   38  A    between atoms: _88  and  _89
REMARK   39  A    between atoms: _91  and  _93
REMARK   40  A    between atoms: _93  and  _94
REMARK   41  A    between atoms: _93  and  _96
REMARK   42  A    between atoms: _96  and  _97
REMARK   43  A    between atoms: _99  and  _101
REMARK   44  A    between atoms: _101  and  _102
REMARK   45  A    between atoms: _101  and  _104
REMARK   46  A    between atoms: _104  and  _105
REMARK   47  A    between atoms: _105  and  _106
REMARK   48  A    between atoms: _111  and  _113
REMARK   49  A    between atoms: _113  and  _114
REMARK   50  A    between atoms: _116  and  _118
REMARK   51  A    between atoms: _118  and  _119
REMARK   52  A    between atoms: _118  and  _121
REMARK   53  A    between atoms: _121  and  _122
REMARK   54  A    between atoms: _122  and  _123
REMARK   55  A    between atoms: _125  and  _127
REMARK   56  A    between atoms: _127  and  _128
REMARK   57  A    between atoms: _127  and  _130
REMARK   58  A    between atoms: _130  and  _131
REMARK   59  A    between atoms: _131  and  _132
REMARK   60  A    between atoms: _135  and  _137
REMARK   61  A    between atoms: _137  and  _138
REMARK   62  A    between atoms: _137  and  _140
REMARK   63  A    between atoms: _140  and  _141
REMARK   64  A    between atoms: _144  and  _146
REMARK   65  A    between atoms: _146  and  _147
REMARK   66  A    between atoms: _149  and  _151
REMARK   67  A    between atoms: _151  and  _152
REMARK   68  A    between atoms: _151  and  _154
REMARK   69  A    between atoms: _156  and  _158
REMARK   70  A    between atoms: _158  and  _159
REMARK   71  A    between atoms: _158  and  _161
REMARK   72  A    between atoms: _161  and  _162
REMARK   73  A    between atoms: _167  and  _168
REMARK   74  A    between atoms: _170  and  _172
REMARK   75  A    between atoms: _172  and  _173
REMARK   76  A    between atoms: _172  and  _175
REMARK   77  A    between atoms: _175  and  _176
REMARK   78  A    between atoms: _178  and  _180
REMARK   79  A    between atoms: _180  and  _181
REMARK   80  A    between atoms: _183  and  _185
REMARK   81  A    between atoms: _185  and  _186
REMARK   82  A    between atoms: _185  and  _188
REMARK   83  A    between atoms: _188  and  _189
REMARK   84  A    between atoms: _194  and  _195
REMARK   85  A    between atoms: _197  and  _199
REMARK   86  A    between atoms: _199  and  _200
REMARK   87  A    between atoms: _199  and  _202
REMARK   88  A    between atoms: _202  and  _203
REMARK   89  A    between atoms: _205  and  _207
REMARK   90  A    between atoms: _207  and  _208
REMARK   91  A    between atoms: _211  and  _213
REMARK   92  A    between atoms: _213  and  _214
REMARK   93  A    between atoms: _213  and  _216
REMARK   94  A    between atoms: _216  and  _217
REMARK   95  A    between atoms: _220  and  _222
REMARK   96  A    between atoms: _222  and  _223
REMARK   97  A    between atoms: _226  and  _228
REMARK   98  A    between atoms: _228  and  _229
REMARK   99  A    between atoms: _228  and  _231
REMARK  100  A    between atoms: _231  and  _232
REMARK  101  A    between atoms: _242  and  _244
REMARK  102  A    between atoms: _244  and  _245
REMARK  103  A    between atoms: _244  and  _247
REMARK  104  A    between atoms: _247  and  _248
REMARK  105  A    between atoms: _251  and  _253
REMARK  106  A    between atoms: _253  and  _254
REMARK  107  A    between atoms: _253  and  _256
REMARK  108  A    between atoms: _256  and  _257
REMARK  109  A    between atoms: _260  and  _262
REMARK  110  A    between atoms: _262  and  _263
REMARK  111  A    between atoms: _262  and  _265
REMARK  112  A    between atoms: _265  and  _266
REMARK  113  A    between atoms: _266  and  _267
REMARK  114  A    between atoms: _270  and  _272
REMARK  115  A    between atoms: _272  and  _273
REMARK  116  A    between atoms: _272  and  _275
REMARK  117  A    between atoms: _275  and  _276
REMARK  118  A    between atoms: _281  and  _282
REMARK  119  A    between atoms: _284  and  _286
REMARK  120  A    between atoms: _286  and  _287
REMARK  121  A    between atoms: _286  and  _289
REMARK  122  A    between atoms: _289  and  _290
REMARK  123  A    between atoms: _293  and  _294
REMARK  124  A    between atoms: _299  and  _301
REMARK  125  A    between atoms: _301  and  _302
REMARK  126  A    between atoms: _301  and  _304
REMARK  127  A    between atoms: _304  and  _305
REMARK  128  A    between atoms: _305  and  _306
REMARK  129  A    between atoms: _306  and  _307
REMARK  130  A    between atoms: _307  and  _308
REMARK  131  A    between atoms: _312  and  _314
REMARK  132  A    between atoms: _314  and  _315
REMARK  133  A    between atoms: _314  and  _317
REMARK  134  A    between atoms: _317  and  _318
REMARK  135  A    between atoms: _318  and  _319
REMARK  136  A    between atoms: _321  and  _323
REMARK  137  A    between atoms: _323  and  _324
REMARK  138  A    between atoms: _323  and  _326
REMARK  139  A    between atoms: _326  and  _327
REMARK  140  A    between atoms: _330  and  _332
REMARK  141  A    between atoms: _332  and  _333
REMARK  142  A    between atoms: _332  and  _335
REMARK  143  A    between atoms: _335  and  _336
REMARK  144  A    between atoms: _338  and  _340
REMARK  145  A    between atoms: _340  and  _341
REMARK  146  A    between atoms: _340  and  _343
REMARK  147  A    between atoms: _343  and  _344
REMARK  148  A    between atoms: _347  and  _349
REMARK  149  A    between atoms: _349  and  _350
REMARK  150  A    between atoms: _349  and  _352
REMARK  151  A    between atoms: _352  and  _353
REMARK  152  A    between atoms: _353  and  _354
REMARK  153  A    between atoms: _357  and  _359
REMARK  154  A    between atoms: _359  and  _360
REMARK  155  A    between atoms: _363  and  _364
REMARK  156  A    between atoms: _369  and  _371
REMARK  157  A    between atoms: _371  and  _372
REMARK  158  A    between atoms: _375  and  _377
REMARK  159  A    between atoms: _377  and  _378
REMARK  160  A    between atoms: _377  and  _380
REMARK  161  A    between atoms: _380  and  _381
REMARK  162  A    between atoms: _381  and  _382
REMARK  163  A    between atoms: _385  and  _387
REMARK  164  A    between atoms: _387  and  _388
REMARK  165  A    between atoms: _387  and  _390
REMARK  166  A    between atoms: _390  and  _391
REMARK  167  A    between atoms: _396  and  _398
REMARK  168  A    between atoms: _398  and  _399
REMARK  169  A    between atoms: _398  and  _401
REMARK  170  A    between atoms: _401  and  _402
REMARK  171  A    between atoms: _405  and  _407
REMARK  172  A    between atoms: _407  and  _408
REMARK  173  A    between atoms: _407  and  _410
REMARK  174  A    between atoms: _410  and  _411
REMARK  175  A    between atoms: _414  and  _416
REMARK  176  A    between atoms: _416  and  _417
REMARK  177  A    between atoms: _416  and  _419
REMARK  178  A    between atoms: _419  and  _420
REMARK  179  A    between atoms: _426  and  _428
REMARK  180  A    between atoms: _428  and  _429
REMARK  181  A    between atoms: _428  and  _431
REMARK  182  A    between atoms: _434  and  _436
REMARK  183  A    between atoms: _436  and  _437
REMARK  184  A    between atoms: _436  and  _439
REMARK  185  A    between atoms: _439  and  _440
REMARK  186  A    between atoms: _443  and  _445
REMARK  187  A    between atoms: _445  and  _446
REMARK  188  A    between atoms: _449  and  _451
REMARK  189  A    between atoms: _451  and  _452
REMARK  190  A    between atoms: _451  and  _454
REMARK  191  A    between atoms: _454  and  _455
REMARK  192  A    between atoms: _460  and  _462
REMARK  193  A    between atoms: _462  and  _463
REMARK  194  A    between atoms: _462  and  _465
REMARK  195  A    between atoms: _465  and  _466
REMARK  196  A    between atoms: _466  and  _467
REMARK  197  A    between atoms: _467  and  _468
REMARK  198  A    between atoms: _468  and  _469
REMARK  199  A    between atoms: _473  and  _475
REMARK  200  A    between atoms: _475  and  _476
REMARK  201  A    between atoms: _475  and  _478
REMARK  202  A    between atoms: _478  and  _479
REMARK  203  A    between atoms: _482  and  _484
REMARK  204  A    between atoms: _484  and  _485
REMARK  205  A    between atoms: _487  and  _489
REMARK  206  A    between atoms: _489  and  _490
REMARK  207  A    between atoms: _489  and  _492
REMARK  208  A    between atoms: _492  and  _493
REMARK  209  A    between atoms: _498  and  _499
REMARK  210  A    between atoms: _501  and  _503
REMARK  211  A    between atoms: _503  and  _504
REMARK  212  A    between atoms: _503  and  _506
REMARK  213  A    between atoms: _506  and  _507
REMARK  214  A    between atoms: _512  and  _513
REMARK  215  A    between atoms: _515  and  _517
REMARK  216  A    between atoms: _517  and  _518
REMARK  217  A    between atoms: _517  and  _520
REMARK  218  A    between atoms: _520  and  _521
REMARK  219  A    between atoms: _524  and  _526
REMARK  220  A    between atoms: _526  and  _527
REMARK  221  A    between atoms: _526  and  _529
REMARK  222  A    between atoms: _529  and  _530
REMARK  223  A    between atoms: _535  and  _537
REMARK  224  A    between atoms: _537  and  _538
REMARK  225  A    between atoms: _537  and  _540
REMARK  226  A    between atoms: _540  and  _541
REMARK  227  A    between atoms: _546  and  _547
REMARK                            x       y       z     vdW  Elec       q    Type
REMARK                         _______ _______ _______ _____ _____    ______ ____
ROOT
ATOM      1  O   HOH     1      45.746 269.927 164.084  0.00  0.00    +0.000 OA
ENDROOT
TORSDOF 0
REMARK  Name = ../refined-set-2016/4ymh/4ymh_pocket.pdb
REMARK  227 active torsions:
REMARK  status: ('A' for Active; 'I' for Inactive)
REMARK    1  A    between atoms: _1  and  _3
REMARK    2  A    between atoms: _3  and  _4
REMARK    3  A    between atoms: _3  and  _6
REMARK    4  A    between atoms: _6  and  _7
REMARK    5  A    between atoms: _12  and  _14
REMARK    6  A    between atoms: _14  and  _15
REMARK    7  A    between atoms: _14  and  _17
REMARK    8  A    between atoms: _17  and  _18
REMARK    9  A    between atoms: _28  and  _30
REMARK   10  A    between atoms: _30  and  _31
REMARK   11  A    between atoms: _30  and  _33
REMARK   12  A    between atoms: _33  and  _34
REMARK   13  A    between atoms: _37  and  _39
REMARK   14  A    between atoms: _39  and  _40
REMARK   15  A    between atoms: _39  and  _42
REMARK   16  A    between atoms: _42  and  _43
REMARK   17  A    between atoms: _46  and  _48
REMARK   18  A    between atoms: _48  and  _49
REMARK   19  A    between atoms: _52  and  _54
REMARK   20  A    between atoms: _54  and  _55
REMARK   21  A    between atoms: _54  and  _57
REMARK   22  A    between atoms: _57  and  _58
REMARK   23  A    between atoms: _61  and  _63
REMARK   24  A    between atoms: _63  and  _64
REMARK   25  A    between atoms: _63  and  _66
REMARK   26  A    between atoms: _66  and  _67
REMARK   27  A    between atoms: _67  and  _68
REMARK   28  A    between atoms: _68  and  _69
REMARK   29  A    between atoms: _69  and  _70
REMARK   30  A    between atoms: _74  and  _76
REMARK   31  A    between atoms: _76  and  _77
REMARK   32  A    between atoms: _76  and  _79
REMARK   33  A    between atoms: _79  and  _80
REMARK   34  A    between atoms: _80  and  _81
REMARK   35  A    between atoms: _83  and  _85
REMARK   36  A    between atoms: _85  and  _86
REMARK   37  A    between atoms: _85  and  _88
REMARK   38  A    between atoms: _88  and  _89
REMARK   39  A    between atoms: _91  and  _93
REMARK   40  A    between atoms: _93  and  _94
REMARK   41  A    between atoms: _93  and  _96
REMARK   42  A    between atoms: _96  and  _97
REMARK   43  A    between atoms: _99  and  _101
REMARK   44  A    between atoms: _101  and  _102
REMARK   45  A    between atoms: _101  and  _104
REMARK   46  A    between atoms: _104  and  _105
REMARK   47  A    between atoms: _105  and  _106
REMARK   48  A    between atoms: _111  and  _113
REMARK   49  A    between atoms: _113  and  _114
REMARK   50  A    between atoms: _116  and  _118
REMARK   51  A    between atoms: _118  and  _119
REMARK   52  A    between atoms: _118  and  _121
REMARK   53  A    between atoms: _121  and  _122
REMARK   54  A    between atoms: _122  and  _123
REMARK   55  A    between atoms: _125  and  _127
REMARK   56  A    between atoms: _127  and  _128
REMARK   57  A    between atoms: _127  and  _130
REMARK   58  A    between atoms: _130  and  _131
REMARK   59  A    between atoms: _131  and  _132
REMARK   60  A    between atoms: _135  and  _137
REMARK   61  A    between atoms: _137  and  _138
REMARK   62  A    between atoms: _137  and  _140
REMARK   63  A    between atoms: _140  and  _141
REMARK   64  A    between atoms: _144  and  _146
REMARK   65  A    between atoms: _146  and  _147
REMARK   66  A    between atoms: _149  and  _151
REMARK   67  A    between atoms: _151  and  _152
REMARK   68  A    between atoms: _151  and  _154
REMARK   69  A    between atoms: _156  and  _158
REMARK   70  A    between atoms: _158  and  _159
REMARK   71  A    between atoms: _158  and  _161
REMARK   72  A    between atoms: _161  and  _162
REMARK   73  A    between atoms: _167  and  _168
REMARK   74  A    between atoms: _170  and  _172
REMARK   75  A    between atoms: _172  and  _173
REMARK   76  A    between atoms: _172  and  _175
REMARK   77  A    between atoms: _175  and  _176
REMARK   78  A    between atoms: _178  and  _180
REMARK   79  A    between atoms: _180  and  _181
REMARK   80  A    between atoms: _183  and  _185
REMARK   81  A    between atoms: _185  and  _186
REMARK   82  A    between atoms: _185  and  _188
REMARK   83  A    between atoms: _188  and  _189
REMARK   84  A    between atoms: _194  and  _195
REMARK   85  A    between atoms: _197  and  _199
REMARK   86  A    between atoms: _199  and  _200
REMARK   87  A    between atoms: _199  and  _202
REMARK   88  A    between atoms: _202  and  _203
REMARK   89  A    between atoms: _205  and  _207
REMARK   90  A    between atoms: _207  and  _208
REMARK   91  A    between atoms: _211  and  _213
REMARK   92  A    between atoms: _213  and  _214
REMARK   93  A    between atoms: _213  and  _216
REMARK   94  A    between atoms: _216  and  _217
REMARK   95  A    between atoms: _220  and  _222
REMARK   96  A    between atoms: _222  and  _223
REMARK   97  A    between atoms: _226  and  _228
REMARK   98  A    between atoms: _228  and  _229
REMARK   99  A    between atoms: _228  and  _231
REMARK  100  A    between atoms: _231  and  _232
REMARK  101  A    between atoms: _242  and  _244
REMARK  102  A    between atoms: _244  and  _245
REMARK  103  A    between atoms: _244  and  _247
REMARK  104  A    between atoms: _247  and  _248
REMARK  105  A    between atoms: _251  and  _253
REMARK  106  A    between atoms: _253  and  _254
REMARK  107  A    between atoms: _253  and  _256
REMARK  108  A    between atoms: _256  and  _257
REMARK  109  A    between atoms: _260  and  _262
REMARK  110  A    between atoms: _262  and  _263
REMARK  111  A    between atoms: _262  and  _265
REMARK  112  A    between atoms: _265  and  _266
REMARK  113  A    between atoms: _266  and  _267
REMARK  114  A    between atoms: _270  and  _272
REMARK  115  A    between atoms: _272  and  _273
REMARK  116  A    between atoms: _272  and  _275
REMARK  117  A    between atoms: _275  and  _276
REMARK  118  A    between atoms: _281  and  _282
REMARK  119  A    between atoms: _284  and  _286
REMARK  120  A    between atoms: _286  and  _287
REMARK  121  A    between atoms: _286  and  _289
REMARK  122  A    between atoms: _289  and  _290
REMARK  123  A    between atoms: _293  and  _294
REMARK  124  A    between atoms: _299  and  _301
REMARK  125  A    between atoms: _301  and  _302
REMARK  126  A    between atoms: _301  and  _304
REMARK  127  A    between atoms: _304  and  _305
REMARK  128  A    between atoms: _305  and  _306
REMARK  129  A    between atoms: _306  and  _307
REMARK  130  A    between atoms: _307  and  _308
REMARK  131  A    between atoms: _312  and  _314
REMARK  132  A    between atoms: _314  and  _315
REMARK  133  A    between atoms: _314  and  _317
REMARK  134  A    between atoms: _317  and  _318
REMARK  135  A    between atoms: _318  and  _319
REMARK  136  A    between atoms: _321  and  _323
REMARK  137  A    between atoms: _323  and  _324
REMARK  138  A    between atoms: _323  and  _326
REMARK  139  A    between atoms: _326  and  _327
REMARK  140  A    between atoms: _330  and  _332
REMARK  141  A    between atoms: _332  and  _333
REMARK  142  A    between atoms: _332  and  _335
REMARK  143  A    between atoms: _335  and  _336
REMARK  144  A    between atoms: _338  and  _340
REMARK  145  A    between atoms: _340  and  _341
REMARK  146  A    between atoms: _340  and  _343
REMARK  147  A    between atoms: _343  and  _344
REMARK  148  A    between atoms: _347  and  _349
REMARK  149  A    between atoms: _349  and  _350
REMARK  150  A    between atoms: _349  and  _352
REMARK  151  A    between atoms: _352  and  _353
REMARK  152  A    between atoms: _353  and  _354
REMARK  153  A    between atoms: _357  and  _359
REMARK  154  A    between atoms: _359  and  _360
REMARK  155  A    between atoms: _363  and  _364
REMARK  156  A    between atoms: _369  and  _371
REMARK  157  A    between atoms: _371  and  _372
REMARK  158  A    between atoms: _375  and  _377
REMARK  159  A    between atoms: _377  and  _378
REMARK  160  A    between atoms: _377  and  _380
REMARK  161  A    between atoms: _380  and  _381
REMARK  162  A    between atoms: _381  and  _382
REMARK  163  A    between atoms: _385  and  _387
REMARK  164  A    between atoms: _387  and  _388
REMARK  165  A    between atoms: _387  and  _390
REMARK  166  A    between atoms: _390  and  _391
REMARK  167  A    between atoms: _396  and  _398
REMARK  168  A    between atoms: _398  and  _399
REMARK  169  A    between atoms: _398  and  _401
REMARK  170  A    between atoms: _401  and  _402
REMARK  171  A    between atoms: _405  and  _407
REMARK  172  A    between atoms: _407  and  _408
REMARK  173  A    between atoms: _407  and  _410
REMARK  174  A    between atoms: _410  and  _411
REMARK  175  A    between atoms: _414  and  _416
REMARK  176  A    between atoms: _416  and  _417
REMARK  177  A    between atoms: _416  and  _419
REMARK  178  A    between atoms: _419  and  _420
REMARK  179  A    between atoms: _426  and  _428
REMARK  180  A    between atoms: _428  and  _429
REMARK  181  A    between atoms: _428  and  _431
REMARK  182  A    between atoms: _434  and  _436
REMARK  183  A    between atoms: _436  and  _437
REMARK  184  A    between atoms: _436  and  _439
REMARK  185  A    between atoms: _439  and  _440
REMARK  186  A    between atoms: _443  and  _445
REMARK  187  A    between atoms: _445  and  _446
REMARK  188  A    between atoms: _449  and  _451
REMARK  189  A    between atoms: _451  and  _452
REMARK  190  A    between atoms: _451  and  _454
REMARK  191  A    between atoms: _454  and  _455
REMARK  192  A    between atoms: _460  and  _462
REMARK  193  A    between atoms: _462  and  _463
REMARK  194  A    between atoms: _462  and  _465
REMARK  195  A    between atoms: _465  and  _466
REMARK  196  A    between atoms: _466  and  _467
REMARK  197  A    between atoms: _467  and  _468
REMARK  198  A    between atoms: _468  and  _469
REMARK  199  A    between atoms: _473  and  _475
REMARK  200  A    between atoms: _475  and  _476
REMARK  201  A    between atoms: _475  and  _478
REMARK  202  A    between atoms: _478  and  _479
REMARK  203  A    between atoms: _482  and  _484
REMARK  204  A    between atoms: _484  and  _485
REMARK  205  A    between atoms: _487  and  _489
REMARK  206  A    between atoms: _489  and  _490
REMARK  207  A    between atoms: _489  and  _492
REMARK  208  A    between atoms: _492  and  _493
REMARK  209  A    between atoms: _498  and  _499
REMARK  210  A    between atoms: _501  and  _503
REMARK  211  A    between atoms: _503  and  _504
REMARK  212  A    between atoms: _503  and  _506
REMARK  213  A    between atoms: _506  and  _507
REMARK  214  A    between atoms: _512  and  _513
REMARK  215  A    between atoms: _515  and  _517
REMARK  216  A    between atoms: _517  and  _518
REMARK  217  A    between atoms: _517  and  _520
REMARK  218  A    between atoms: _520  and  _521
REMARK  219  A    between atoms: _524  and  _526
REMARK  220  A    between atoms: _526  and  _527
REMARK  221  A    between atoms: _526  and  _529
REMARK  222  A    between atoms: _529  and  _530
REMARK  223  A    between atoms: _535  and  _537
REMARK  224  A    between atoms: _537  and  _538
REMARK  225  A    between atoms: _537  and  _540
REMARK  226  A    between atoms: _540  and  _541
REMARK  227  A    between atoms: _546  and  _547
REMARK                            x       y       z     vdW  Elec       q    Type
REMARK                         _______ _______ _______ _____ _____    ______ ____
ROOT
ATOM      1  O   HOH     1      43.896 267.883 172.351  0.00  0.00    +0.000 OA
ENDROOT
TORSDOF 0
REMARK  Name = ../refined-set-2016/4ymh/4ymh_pocket.pdb
REMARK  227 active torsions:
REMARK  status: ('A' for Active; 'I' for Inactive)
REMARK    1  A    between atoms: _1  and  _3
REMARK    2  A    between atoms: _3  and  _4
REMARK    3  A    between atoms: _3  and  _6
REMARK    4  A    between atoms: _6  and  _7
REMARK    5  A    between atoms: _12  and  _14
REMARK    6  A    between atoms: _14  and  _15
REMARK    7  A    between atoms: _14  and  _17
REMARK    8  A    between atoms: _17  and  _18
REMARK    9  A    between atoms: _28  and  _30
REMARK   10  A    between atoms: _30  and  _31
REMARK   11  A    between atoms: _30  and  _33
REMARK   12  A    between atoms: _33  and  _34
REMARK   13  A    between atoms: _37  and  _39
REMARK   14  A    between atoms: _39  and  _40
REMARK   15  A    between atoms: _39  and  _42
REMARK   16  A    between atoms: _42  and  _43
REMARK   17  A    between atoms: _46  and  _48
REMARK   18  A    between atoms: _48  and  _49
REMARK   19  A    between atoms: _52  and  _54
REMARK   20  A    between atoms: _54  and  _55
REMARK   21  A    between atoms: _54  and  _57
REMARK   22  A    between atoms: _57  and  _58
REMARK   23  A    between atoms: _61  and  _63
REMARK   24  A    between atoms: _63  and  _64
REMARK   25  A    between atoms: _63  and  _66
REMARK   26  A    between atoms: _66  and  _67
REMARK   27  A    between atoms: _67  and  _68
REMARK   28  A    between atoms: _68  and  _69
REMARK   29  A    between atoms: _69  and  _70
REMARK   30  A    between atoms: _74  and  _76
REMARK   31  A    between atoms: _76  and  _77
REMARK   32  A    between atoms: _76  and  _79
REMARK   33  A    between atoms: _79  and  _80
REMARK   34  A    between atoms: _80  and  _81
REMARK   35  A    between atoms: _83  and  _85
REMARK   36  A    between atoms: _85  and  _86
REMARK   37  A    between atoms: _85  and  _88
REMARK   38  A    between atoms: _88  and  _89
REMARK   39  A    between atoms: _91  and  _93
REMARK   40  A    between atoms: _93  and  _94
REMARK   41  A    between atoms: _93  and  _96
REMARK   42  A    between atoms: _96  and  _97
REMARK   43  A    between atoms: _99  and  _101
REMARK   44  A    between atoms: _101  and  _102
REMARK   45  A    between atoms: _101  and  _104
REMARK   46  A    between atoms: _104  and  _105
REMARK   47  A    between atoms: _105  and  _106
REMARK   48  A    between atoms: _111  and  _113
REMARK   49  A    between atoms: _113  and  _114
REMARK   50  A    between atoms: _116  and  _118
REMARK   51  A    between atoms: _118  and  _119
REMARK   52  A    between atoms: _118  and  _121
REMARK   53  A    between atoms: _121  and  _122
REMARK   54  A    between atoms: _122  and  _123
REMARK   55  A    between atoms: _125  and  _127
REMARK   56  A    between atoms: _127  and  _128
REMARK   57  A    between atoms: _127  and  _130
REMARK   58  A    between atoms: _130  and  _131
REMARK   59  A    between atoms: _131  and  _132
REMARK   60  A    between atoms: _135  and  _137
REMARK   61  A    between atoms: _137  and  _138
REMARK   62  A    between atoms: _137  and  _140
REMARK   63  A    between atoms: _140  and  _141
REMARK   64  A    between atoms: _144  and  _146
REMARK   65  A    between atoms: _146  and  _147
REMARK   66  A    between atoms: _149  and  _151
REMARK   67  A    between atoms: _151  and  _152
REMARK   68  A    between atoms: _151  and  _154
REMARK   69  A    between atoms: _156  and  _158
REMARK   70  A    between atoms: _158  and  _159
REMARK   71  A    between atoms: _158  and  _161
REMARK   72  A    between atoms: _161  and  _162
REMARK   73  A    between atoms: _167  and  _168
REMARK   74  A    between atoms: _170  and  _172
REMARK   75  A    between atoms: _172  and  _173
REMARK   76  A    between atoms: _172  and  _175
REMARK   77  A    between atoms: _175  and  _176
REMARK   78  A    between atoms: _178  and  _180
REMARK   79  A    between atoms: _180  and  _181
REMARK   80  A    between atoms: _183  and  _185
REMARK   81  A    between atoms: _185  and  _186
REMARK   82  A    between atoms: _185  and  _188
REMARK   83  A    between atoms: _188  and  _189
REMARK   84  A    between atoms: _194  and  _195
REMARK   85  A    between atoms: _197  and  _199
REMARK   86  A    between atoms: _199  and  _200
REMARK   87  A    between atoms: _199  and  _202
REMARK   88  A    between atoms: _202  and  _203
REMARK   89  A    between atoms: _205  and  _207
REMARK   90  A    between atoms: _207  and  _208
REMARK   91  A    between atoms: _211  and  _213
REMARK   92  A    between atoms: _213  and  _214
REMARK   93  A    between atoms: _213  and  _216
REMARK   94  A    between atoms: _216  and  _217
REMARK   95  A    between atoms: _220  and  _222
REMARK   96  A    between atoms: _222  and  _223
REMARK   97  A    between atoms: _226  and  _228
REMARK   98  A    between atoms: _228  and  _229
REMARK   99  A    between atoms: _228  and  _231
REMARK  100  A    between atoms: _231  and  _232
REMARK  101  A    between atoms: _242  and  _244
REMARK  102  A    between atoms: _244  and  _245
REMARK  103  A    between atoms: _244  and  _247
REMARK  104  A    between atoms: _247  and  _248
REMARK  105  A    between atoms: _251  and  _253
REMARK  106  A    between atoms: _253  and  _254
REMARK  107  A    between atoms: _253  and  _256
REMARK  108  A    between atoms: _256  and  _257
REMARK  109  A    between atoms: _260  and  _262
REMARK  110  A    between atoms: _262  and  _263
REMARK  111  A    between atoms: _262  and  _265
REMARK  112  A    between atoms: _265  and  _266
REMARK  113  A    between atoms: _266  and  _267
REMARK  114  A    between atoms: _270  and  _272
REMARK  115  A    between atoms: _272  and  _273
REMARK  116  A    between atoms: _272  and  _275
REMARK  117  A    between atoms: _275  and  _276
REMARK  118  A    between atoms: _281  and  _282
REMARK  119  A    between atoms: _284  and  _286
REMARK  120  A    between atoms: _286  and  _287
REMARK  121  A    between atoms: _286  and  _289
REMARK  122  A    between atoms: _289  and  _290
REMARK  123  A    between atoms: _293  and  _294
REMARK  124  A    between atoms: _299  and  _301
REMARK  125  A    between atoms: _301  and  _302
REMARK  126  A    between atoms: _301  and  _304
REMARK  127  A    between atoms: _304  and  _305
REMARK  128  A    between atoms: _305  and  _306
REMARK  129  A    between atoms: _306  and  _307
REMARK  130  A    between atoms: _307  and  _308
REMARK  131  A    between atoms: _312  and  _314
REMARK  132  A    between atoms: _314  and  _315
REMARK  133  A    between atoms: _314  and  _317
REMARK  134  A    between atoms: _317  and  _318
REMARK  135  A    between atoms: _318  and  _319
REMARK  136  A    between atoms: _321  and  _323
REMARK  137  A    between atoms: _323  and  _324
REMARK  138  A    between atoms: _323  and  _326
REMARK  139  A    between atoms: _326  and  _327
REMARK  140  A    between atoms: _330  and  _332
REMARK  141  A    between atoms: _332  and  _333
REMARK  142  A    between atoms: _332  and  _335
REMARK  143  A    between atoms: _335  and  _336
REMARK  144  A    between atoms: _338  and  _340
REMARK  145  A    between atoms: _340  and  _341
REMARK  146  A    between atoms: _340  and  _343
REMARK  147  A    between atoms: _343  and  _344
REMARK  148  A    between atoms: _347  and  _349
REMARK  149  A    between atoms: _349  and  _350
REMARK  150  A    between atoms: _349  and  _352
REMARK  151  A    between atoms: _352  and  _353
REMARK  152  A    between atoms: _353  and  _354
REMARK  153  A    between atoms: _357  and  _359
REMARK  154  A    between atoms: _359  and  _360
REMARK  155  A    between atoms: _363  and  _364
REMARK  156  A    between atoms: _369  and  _371
REMARK  157  A    between atoms: _371  and  _372
REMARK  158  A    between atoms: _375  and  _377
REMARK  159  A    between atoms: _377  and  _378
REMARK  160  A    between atoms: _377  and  _380
REMARK  161  A    between atoms: _380  and  _381
REMARK  162  A    between atoms: _381  and  _382
REMARK  163  A    between atoms: _385  and  _387
REMARK  164  A    between atoms: _387  and  _388
REMARK  165  A    between atoms: _387  and  _390
REMARK  166  A    between atoms: _390  and  _391
REMARK  167  A    between atoms: _396  and  _398
REMARK  168  A    between atoms: _398  and  _399
REMARK  169  A    between atoms: _398  and  _401
REMARK  170  A    between atoms: _401  and  _402
REMARK  171  A    between atoms: _405  and  _407
REMARK  172  A    between atoms: _407  and  _408
REMARK  173  A    between atoms: _407  and  _410
REMARK  174  A    between atoms: _410  and  _411
REMARK  175  A    between atoms: _414  and  _416
REMARK  176  A    between atoms: _416  and  _417
REMARK  177  A    between atoms: _416  and  _419
REMARK  178  A    between atoms: _419  and  _420
REMARK  179  A    between atoms: _426  and  _428
REMARK  180  A    between atoms: _428  and  _429
REMARK  181  A    between atoms: _428  and  _431
REMARK  182  A    between atoms: _434  and  _436
REMARK  183  A    between atoms: _436  and  _437
REMARK  184  A    between atoms: _436  and  _439
REMARK  185  A    between atoms: _439  and  _440
REMARK  186  A    between atoms: _443  and  _445
REMARK  187  A    between atoms: _445  and  _446
REMARK  188  A    between atoms: _449  and  _451
REMARK  189  A    between atoms: _451  and  _452
REMARK  190  A    between atoms: _451  and  _454
REMARK  191  A    between atoms: _454  and  _455
REMARK  192  A    between atoms: _460  and  _462
REMARK  193  A    between atoms: _462  and  _463
REMARK  194  A    between atoms: _462  and  _465
REMARK  195  A    between atoms: _465  and  _466
REMARK  196  A    between atoms: _466  and  _467
REMARK  197  A    between atoms: _467  and  _468
REMARK  198  A    between atoms: _468  and  _469
REMARK  199  A    between atoms: _473  and  _475
REMARK  200  A    between atoms: _475  and  _476
REMARK  201  A    between atoms: _475  and  _478
REMARK  202  A    between atoms: _478  and  _479
REMARK  203  A    between atoms: _482  and  _484
REMARK  204  A    between atoms: _484  and  _485
REMARK  205  A    between atoms: _487  and  _489
REMARK  206  A    between atoms: _489  and  _490
REMARK  207  A    between atoms: _489  and  _492
REMARK  208  A    between atoms: _492  and  _493
REMARK  209  A    between atoms: _498  and  _499
REMARK  210  A    between atoms: _501  and  _503
REMARK  211  A    between atoms: _503  and  _504
REMARK  212  A    between atoms: _503  and  _506
REMARK  213  A    between atoms: _506  and  _507
REMARK  214  A    between atoms: _512  and  _513
REMARK  215  A    between atoms: _515  and  _517
REMARK  216  A    between atoms: _517  and  _518
REMARK  217  A    between atoms: _517  and  _520
REMARK  218  A    between atoms: _520  and  _521
REMARK  219  A    between atoms: _524  and  _526
REMARK  220  A    between atoms: _526  and  _527
REMARK  221  A    between atoms: _526  and  _529
REMARK  222  A    between atoms: _529  and  _530
REMARK  223  A    between atoms: _535  and  _537
REMARK  224  A    between atoms: _537  and  _538
REMARK  225  A    between atoms: _537  and  _540
REMARK  226  A    between atoms: _540  and  _541
REMARK  227  A    between atoms: _546  and  _547
REMARK                            x       y       z     vdW  Elec       q    Type
REMARK                         _______ _______ _______ _____ _____    ______ ____
ROOT
ATOM      1  O   HOH     1      47.289 265.351 165.388  0.00  0.00    +0.000 OA
ENDROOT
TORSDOF 0
REMARK  Name = ../refined-set-2016/4ymh/4ymh_pocket.pdb
REMARK  227 active torsions:
REMARK  status: ('A' for Active; 'I' for Inactive)
REMARK    1  A    between atoms: _1  and  _3
REMARK    2  A    between atoms: _3  and  _4
REMARK    3  A    between atoms: _3  and  _6
REMARK    4  A    between atoms: _6  and  _7
REMARK    5  A    between atoms: _12  and  _14
REMARK    6  A    between atoms: _14  and  _15
REMARK    7  A    between atoms: _14  and  _17
REMARK    8  A    between atoms: _17  and  _18
REMARK    9  A    between atoms: _28  and  _30
REMARK   10  A    between atoms: _30  and  _31
REMARK   11  A    between atoms: _30  and  _33
REMARK   12  A    between atoms: _33  and  _34
REMARK   13  A    between atoms: _37  and  _39
REMARK   14  A    between atoms: _39  and  _40
REMARK   15  A    between atoms: _39  and  _42
REMARK   16  A    between atoms: _42  and  _43
REMARK   17  A    between atoms: _46  and  _48
REMARK   18  A    between atoms: _48  and  _49
REMARK   19  A    between atoms: _52  and  _54
REMARK   20  A    between atoms: _54  and  _55
REMARK   21  A    between atoms: _54  and  _57
REMARK   22  A    between atoms: _57  and  _58
REMARK   23  A    between atoms: _61  and  _63
REMARK   24  A    between atoms: _63  and  _64
REMARK   25  A    between atoms: _63  and  _66
REMARK   26  A    between atoms: _66  and  _67
REMARK   27  A    between atoms: _67  and  _68
REMARK   28  A    between atoms: _68  and  _69
REMARK   29  A    between atoms: _69  and  _70
REMARK   30  A    between atoms: _74  and  _76
REMARK   31  A    between atoms: _76  and  _77
REMARK   32  A    between atoms: _76  and  _79
REMARK   33  A    between atoms: _79  and  _80
REMARK   34  A    between atoms: _80  and  _81
REMARK   35  A    between atoms: _83  and  _85
REMARK   36  A    between atoms: _85  and  _86
REMARK   37  A    between atoms: _85  and  _88
REMARK   38  A    between atoms: _88  and  _89
REMARK   39  A    between atoms: _91  and  _93
REMARK   40  A    between atoms: _93  and  _94
REMARK   41  A    between atoms: _93  and  _96
REMARK   42  A    between atoms: _96  and  _97
REMARK   43  A    between atoms: _99  and  _101
REMARK   44  A    between atoms: _101  and  _102
REMARK   45  A    between atoms: _101  and  _104
REMARK   46  A    between atoms: _104  and  _105
REMARK   47  A    between atoms: _105  and  _106
REMARK   48  A    between atoms: _111  and  _113
REMARK   49  A    between atoms: _113  and  _114
REMARK   50  A    between atoms: _116  and  _118
REMARK   51  A    between atoms: _118  and  _119
REMARK   52  A    between atoms: _118  and  _121
REMARK   53  A    between atoms: _121  and  _122
REMARK   54  A    between atoms: _122  and  _123
REMARK   55  A    between atoms: _125  and  _127
REMARK   56  A    between atoms: _127  and  _128
REMARK   57  A    between atoms: _127  and  _130
REMARK   58  A    between atoms: _130  and  _131
REMARK   59  A    between atoms: _131  and  _132
REMARK   60  A    between atoms: _135  and  _137
REMARK   61  A    between atoms: _137  and  _138
REMARK   62  A    between atoms: _137  and  _140
REMARK   63  A    between atoms: _140  and  _141
REMARK   64  A    between atoms: _144  and  _146
REMARK   65  A    between atoms: _146  and  _147
REMARK   66  A    between atoms: _149  and  _151
REMARK   67  A    between atoms: _151  and  _152
REMARK   68  A    between atoms: _151  and  _154
REMARK   69  A    between atoms: _156  and  _158
REMARK   70  A    between atoms: _158  and  _159
REMARK   71  A    between atoms: _158  and  _161
REMARK   72  A    between atoms: _161  and  _162
REMARK   73  A    between atoms: _167  and  _168
REMARK   74  A    between atoms: _170  and  _172
REMARK   75  A    between atoms: _172  and  _173
REMARK   76  A    between atoms: _172  and  _175
REMARK   77  A    between atoms: _175  and  _176
REMARK   78  A    between atoms: _178  and  _180
REMARK   79  A    between atoms: _180  and  _181
REMARK   80  A    between atoms: _183  and  _185
REMARK   81  A    between atoms: _185  and  _186
REMARK   82  A    between atoms: _185  and  _188
REMARK   83  A    between atoms: _188  and  _189
REMARK   84  A    between atoms: _194  and  _195
REMARK   85  A    between atoms: _197  and  _199
REMARK   86  A    between atoms: _199  and  _200
REMARK   87  A    between atoms: _199  and  _202
REMARK   88  A    between atoms: _202  and  _203
REMARK   89  A    between atoms: _205  and  _207
REMARK   90  A    between atoms: _207  and  _208
REMARK   91  A    between atoms: _211  and  _213
REMARK   92  A    between atoms: _213  and  _214
REMARK   93  A    between atoms: _213  and  _216
REMARK   94  A    between atoms: _216  and  _217
REMARK   95  A    between atoms: _220  and  _222
REMARK   96  A    between atoms: _222  and  _223
REMARK   97  A    between atoms: _226  and  _228
REMARK   98  A    between atoms: _228  and  _229
REMARK   99  A    between atoms: _228  and  _231
REMARK  100  A    between atoms: _231  and  _232
REMARK  101  A    between atoms: _242  and  _244
REMARK  102  A    between atoms: _244  and  _245
REMARK  103  A    between atoms: _244  and  _247
REMARK  104  A    between atoms: _247  and  _248
REMARK  105  A    between atoms: _251  and  _253
REMARK  106  A    between atoms: _253  and  _254
REMARK  107  A    between atoms: _253  and  _256
REMARK  108  A    between atoms: _256  and  _257
REMARK  109  A    between atoms: _260  and  _262
REMARK  110  A    between atoms: _262  and  _263
REMARK  111  A    between atoms: _262  and  _265
REMARK  112  A    between atoms: _265  and  _266
REMARK  113  A    between atoms: _266  and  _267
REMARK  114  A    between atoms: _270  and  _272
REMARK  115  A    between atoms: _272  and  _273
REMARK  116  A    between atoms: _272  and  _275
REMARK  117  A    between atoms: _275  and  _276
REMARK  118  A    between atoms: _281  and  _282
REMARK  119  A    between atoms: _284  and  _286
REMARK  120  A    between atoms: _286  and  _287
REMARK  121  A    between atoms: _286  and  _289
REMARK  122  A    between atoms: _289  and  _290
REMARK  123  A    between atoms: _293  and  _294
REMARK  124  A    between atoms: _299  and  _301
REMARK  125  A    between atoms: _301  and  _302
REMARK  126  A    between atoms: _301  and  _304
REMARK  127  A    between atoms: _304  and  _305
REMARK  128  A    between atoms: _305  and  _306
REMARK  129  A    between atoms: _306  and  _307
REMARK  130  A    between atoms: _307  and  _308
REMARK  131  A    between atoms: _312  and  _314
REMARK  132  A    between atoms: _314  and  _315
REMARK  133  A    between atoms: _314  and  _317
REMARK  134  A    between atoms: _317  and  _318
REMARK  135  A    between atoms: _318  and  _319
REMARK  136  A    between atoms: _321  and  _323
REMARK  137  A    between atoms: _323  and  _324
REMARK  138  A    between atoms: _323  and  _326
REMARK  139  A    between atoms: _326  and  _327
REMARK  140  A    between atoms: _330  and  _332
REMARK  141  A    between atoms: _332  and  _333
REMARK  142  A    between atoms: _332  and  _335
REMARK  143  A    between atoms: _335  and  _336
REMARK  144  A    between atoms: _338  and  _340
REMARK  145  A    between atoms: _340  and  _341
REMARK  146  A    between atoms: _340  and  _343
REMARK  147  A    between atoms: _343  and  _344
REMARK  148  A    between atoms: _347  and  _349
REMARK  149  A    between atoms: _349  and  _350
REMARK  150  A    between atoms: _349  and  _352
REMARK  151  A    between atoms: _352  and  _353
REMARK  152  A    between atoms: _353  and  _354
REMARK  153  A    between atoms: _357  and  _359
REMARK  154  A    between atoms: _359  and  _360
REMARK  155  A    between atoms: _363  and  _364
REMARK  156  A    between atoms: _369  and  _371
REMARK  157  A    between atoms: _371  and  _372
REMARK  158  A    between atoms: _375  and  _377
REMARK  159  A    between atoms: _377  and  _378
REMARK  160  A    between atoms: _377  and  _380
REMARK  161  A    between atoms: _380  and  _381
REMARK  162  A    between atoms: _381  and  _382
REMARK  163  A    between atoms: _385  and  _387
REMARK  164  A    between atoms: _387  and  _388
REMARK  165  A    between atoms: _387  and  _390
REMARK  166  A    between atoms: _390  and  _391
REMARK  167  A    between atoms: _396  and  _398
REMARK  168  A    between atoms: _398  and  _399
REMARK  169  A    between atoms: _398  and  _401
REMARK  170  A    between atoms: _401  and  _402
REMARK  171  A    between atoms: _405  and  _407
REMARK  172  A    between atoms: _407  and  _408
REMARK  173  A    between atoms: _407  and  _410
REMARK  174  A    between atoms: _410  and  _411
REMARK  175  A    between atoms: _414  and  _416
REMARK  176  A    between atoms: _416  and  _417
REMARK  177  A    between atoms: _416  and  _419
REMARK  178  A    between atoms: _419  and  _420
REMARK  179  A    between atoms: _426  and  _428
REMARK  180  A    between atoms: _428  and  _429
REMARK  181  A    between atoms: _428  and  _431
REMARK  182  A    between atoms: _434  and  _436
REMARK  183  A    between atoms: _436  and  _437
REMARK  184  A    between atoms: _436  and  _439
REMARK  185  A    between atoms: _439  and  _440
REMARK  186  A    between atoms: _443  and  _445
REMARK  187  A    between atoms: _445  and  _446
REMARK  188  A    between atoms: _449  and  _451
REMARK  189  A    between atoms: _451  and  _452
REMARK  190  A    between atoms: _451  and  _454
REMARK  191  A    between atoms: _454  and  _455
REMARK  192  A    between atoms: _460  and  _462
REMARK  193  A    between atoms: _462  and  _463
REMARK  194  A    between atoms: _462  and  _465
REMARK  195  A    between atoms: _465  and  _466
REMARK  196  A    between atoms: _466  and  _467
REMARK  197  A    between atoms: _467  and  _468
REMARK  198  A    between atoms: _468  and  _469
REMARK  199  A    between atoms: _473  and  _475
REMARK  200  A    between atoms: _475  and  _476
REMARK  201  A    between atoms: _475  and  _478
REMARK  202  A    between atoms: _478  and  _479
REMARK  203  A    between atoms: _482  and  _484
REMARK  204  A    between atoms: _484  and  _485
REMARK  205  A    between atoms: _487  and  _489
REMARK  206  A    between atoms: _489  and  _490
REMARK  207  A    between atoms: _489  and  _492
REMARK  208  A    between atoms: _492  and  _493
REMARK  209  A    between atoms: _498  and  _499
REMARK  210  A    between atoms: _501  and  _503
REMARK  211  A    between atoms: _503  and  _504
REMARK  212  A    between atoms: _503  and  _506
REMARK  213  A    between atoms: _506  and  _507
REMARK  214  A    between atoms: _512  and  _513
REMARK  215  A    between atoms: _515  and  _517
REMARK  216  A    between atoms: _517  and  _518
REMARK  217  A    between atoms: _517  and  _520
REMARK  218  A    between atoms: _520  and  _521
REMARK  219  A    between atoms: _524  and  _526
REMARK  220  A    between atoms: _526  and  _527
REMARK  221  A    between atoms: _526  and  _529
REMARK  222  A    between atoms: _529  and  _530
REMARK  223  A    between atoms: _535  and  _537
REMARK  224  A    between atoms: _537  and  _538
REMARK  225  A    between atoms: _537  and  _540
REMARK  226  A    between atoms: _540  and  _541
REMARK  227  A    between atoms: _546  and  _547
REMARK                            x       y       z     vdW  Elec       q    Type
REMARK                         _______ _______ _______ _____ _____    ______ ____
ROOT
ATOM      1  O   HOH     1      40.905 266.261 155.682  0.00  0.00    +0.000 OA
ENDROOT
TORSDOF 0
REMARK  Name = ../refined-set-2016/4ymh/4ymh_pocket.pdb
REMARK  227 active torsions:
REMARK  status: ('A' for Active; 'I' for Inactive)
REMARK    1  A    between atoms: _1  and  _3
REMARK    2  A    between atoms: _3  and  _4
REMARK    3  A    between atoms: _3  and  _6
REMARK    4  A    between atoms: _6  and  _7
REMARK    5  A    between atoms: _12  and  _14
REMARK    6  A    between atoms: _14  and  _15
REMARK    7  A    between atoms: _14  and  _17
REMARK    8  A    between atoms: _17  and  _18
REMARK    9  A    between atoms: _28  and  _30
REMARK   10  A    between atoms: _30  and  _31
REMARK   11  A    between atoms: _30  and  _33
REMARK   12  A    between atoms: _33  and  _34
REMARK   13  A    between atoms: _37  and  _39
REMARK   14  A    between atoms: _39  and  _40
REMARK   15  A    between atoms: _39  and  _42
REMARK   16  A    between atoms: _42  and  _43
REMARK   17  A    between atoms: _46  and  _48
REMARK   18  A    between atoms: _48  and  _49
REMARK   19  A    between atoms: _52  and  _54
REMARK   20  A    between atoms: _54  and  _55
REMARK   21  A    between atoms: _54  and  _57
REMARK   22  A    between atoms: _57  and  _58
REMARK   23  A    between atoms: _61  and  _63
REMARK   24  A    between atoms: _63  and  _64
REMARK   25  A    between atoms: _63  and  _66
REMARK   26  A    between atoms: _66  and  _67
REMARK   27  A    between atoms: _67  and  _68
REMARK   28  A    between atoms: _68  and  _69
REMARK   29  A    between atoms: _69  and  _70
REMARK   30  A    between atoms: _74  and  _76
REMARK   31  A    between atoms: _76  and  _77
REMARK   32  A    between atoms: _76  and  _79
REMARK   33  A    between atoms: _79  and  _80
REMARK   34  A    between atoms: _80  and  _81
REMARK   35  A    between atoms: _83  and  _85
REMARK   36  A    between atoms: _85  and  _86
REMARK   37  A    between atoms: _85  and  _88
REMARK   38  A    between atoms: _88  and  _89
REMARK   39  A    between atoms: _91  and  _93
REMARK   40  A    between atoms: _93  and  _94
REMARK   41  A    between atoms: _93  and  _96
REMARK   42  A    between atoms: _96  and  _97
REMARK   43  A    between atoms: _99  and  _101
REMARK   44  A    between atoms: _101  and  _102
REMARK   45  A    between atoms: _101  and  _104
REMARK   46  A    between atoms: _104  and  _105
REMARK   47  A    between atoms: _105  and  _106
REMARK   48  A    between atoms: _111  and  _113
REMARK   49  A    between atoms: _113  and  _114
REMARK   50  A    between atoms: _116  and  _118
REMARK   51  A    between atoms: _118  and  _119
REMARK   52  A    between atoms: _118  and  _121
REMARK   53  A    between atoms: _121  and  _122
REMARK   54  A    between atoms: _122  and  _123
REMARK   55  A    between atoms: _125  and  _127
REMARK   56  A    between atoms: _127  and  _128
REMARK   57  A    between atoms: _127  and  _130
REMARK   58  A    between atoms: _130  and  _131
REMARK   59  A    between atoms: _131  and  _132
REMARK   60  A    between atoms: _135  and  _137
REMARK   61  A    between atoms: _137  and  _138
REMARK   62  A    between atoms: _137  and  _140
REMARK   63  A    between atoms: _140  and  _141
REMARK   64  A    between atoms: _144  and  _146
REMARK   65  A    between atoms: _146  and  _147
REMARK   66  A    between atoms: _149  and  _151
REMARK   67  A    between atoms: _151  and  _152
REMARK   68  A    between atoms: _151  and  _154
REMARK   69  A    between atoms: _156  and  _158
REMARK   70  A    between atoms: _158  and  _159
REMARK   71  A    between atoms: _158  and  _161
REMARK   72  A    between atoms: _161  and  _162
REMARK   73  A    between atoms: _167  and  _168
REMARK   74  A    between atoms: _170  and  _172
REMARK   75  A    between atoms: _172  and  _173
REMARK   76  A    between atoms: _172  and  _175
REMARK   77  A    between atoms: _175  and  _176
REMARK   78  A    between atoms: _178  and  _180
REMARK   79  A    between atoms: _180  and  _181
REMARK   80  A    between atoms: _183  and  _185
REMARK   81  A    between atoms: _185  and  _186
REMARK   82  A    between atoms: _185  and  _188
REMARK   83  A    between atoms: _188  and  _189
REMARK   84  A    between atoms: _194  and  _195
REMARK   85  A    between atoms: _197  and  _199
REMARK   86  A    between atoms: _199  and  _200
REMARK   87  A    between atoms: _199  and  _202
REMARK   88  A    between atoms: _202  and  _203
REMARK   89  A    between atoms: _205  and  _207
REMARK   90  A    between atoms: _207  and  _208
REMARK   91  A    between atoms: _211  and  _213
REMARK   92  A    between atoms: _213  and  _214
REMARK   93  A    between atoms: _213  and  _216
REMARK   94  A    between atoms: _216  and  _217
REMARK   95  A    between atoms: _220  and  _222
REMARK   96  A    between atoms: _222  and  _223
REMARK   97  A    between atoms: _226  and  _228
REMARK   98  A    between atoms: _228  and  _229
REMARK   99  A    between atoms: _228  and  _231
REMARK  100  A    between atoms: _231  and  _232
REMARK  101  A    between atoms: _242  and  _244
REMARK  102  A    between atoms: _244  and  _245
REMARK  103  A    between atoms: _244  and  _247
REMARK  104  A    between atoms: _247  and  _248
REMARK  105  A    between atoms: _251  and  _253
REMARK  106  A    between atoms: _253  and  _254
REMARK  107  A    between atoms: _253  and  _256
REMARK  108  A    between atoms: _256  and  _257
REMARK  109  A    between atoms: _260  and  _262
REMARK  110  A    between atoms: _262  and  _263
REMARK  111  A    between atoms: _262  and  _265
REMARK  112  A    between atoms: _265  and  _266
REMARK  113  A    between atoms: _266  and  _267
REMARK  114  A    between atoms: _270  and  _272
REMARK  115  A    between atoms: _272  and  _273
REMARK  116  A    between atoms: _272  and  _275
REMARK  117  A    between atoms: _275  and  _276
REMARK  118  A    between atoms: _281  and  _282
REMARK  119  A    between atoms: _284  and  _286
REMARK  120  A    between atoms: _286  and  _287
REMARK  121  A    between atoms: _286  and  _289
REMARK  122  A    between atoms: _289  and  _290
REMARK  123  A    between atoms: _293  and  _294
REMARK  124  A    between atoms: _299  and  _301
REMARK  125  A    between atoms: _301  and  _302
REMARK  126  A    between atoms: _301  and  _304
REMARK  127  A    between atoms: _304  and  _305
REMARK  128  A    between atoms: _305  and  _306
REMARK  129  A    between atoms: _306  and  _307
REMARK  130  A    between atoms: _307  and  _308
REMARK  131  A    between atoms: _312  and  _314
REMARK  132  A    between atoms: _314  and  _315
REMARK  133  A    between atoms: _314  and  _317
REMARK  134  A    between atoms: _317  and  _318
REMARK  135  A    between atoms: _318  and  _319
REMARK  136  A    between atoms: _321  and  _323
REMARK  137  A    between atoms: _323  and  _324
REMARK  138  A    between atoms: _323  and  _326
REMARK  139  A    between atoms: _326  and  _327
REMARK  140  A    between atoms: _330  and  _332
REMARK  141  A    between atoms: _332  and  _333
REMARK  142  A    between atoms: _332  and  _335
REMARK  143  A    between atoms: _335  and  _336
REMARK  144  A    between atoms: _338  and  _340
REMARK  145  A    between atoms: _340  and  _341
REMARK  146  A    between atoms: _340  and  _343
REMARK  147  A    between atoms: _343  and  _344
REMARK  148  A    between atoms: _347  and  _349
REMARK  149  A    between atoms: _349  and  _350
REMARK  150  A    between atoms: _349  and  _352
REMARK  151  A    between atoms: _352  and  _353
REMARK  152  A    between atoms: _353  and  _354
REMARK  153  A    between atoms: _357  and  _359
REMARK  154  A    between atoms: _359  and  _360
REMARK  155  A    between atoms: _363  and  _364
REMARK  156  A    between atoms: _369  and  _371
REMARK  157  A    between atoms: _371  and  _372
REMARK  158  A    between atoms: _375  and  _377
REMARK  159  A    between atoms: _377  and  _378
REMARK  160  A    between atoms: _377  and  _380
REMARK  161  A    between atoms: _380  and  _381
REMARK  162  A    between atoms: _381  and  _382
REMARK  163  A    between atoms: _385  and  _387
REMARK  164  A    between atoms: _387  and  _388
REMARK  165  A    between atoms: _387  and  _390
REMARK  166  A    between atoms: _390  and  _391
REMARK  167  A    between atoms: _396  and  _398
REMARK  168  A    between atoms: _398  and  _399
REMARK  169  A    between atoms: _398  and  _401
REMARK  170  A    between atoms: _401  and  _402
REMARK  171  A    between atoms: _405  and  _407
REMARK  172  A    between atoms: _407  and  _408
REMARK  173  A    between atoms: _407  and  _410
REMARK  174  A    between atoms: _410  and  _411
REMARK  175  A    between atoms: _414  and  _416
REMARK  176  A    between atoms: _416  and  _417
REMARK  177  A    between atoms: _416  and  _419
REMARK  178  A    between atoms: _419  and  _420
REMARK  179  A    between atoms: _426  and  _428
REMARK  180  A    between atoms: _428  and  _429
REMARK  181  A    between atoms: _428  and  _431
REMARK  182  A    between atoms: _434  and  _436
REMARK  183  A    between atoms: _436  and  _437
REMARK  184  A    between atoms: _436  and  _439
REMARK  185  A    between atoms: _439  and  _440
REMARK  186  A    between atoms: _443  and  _445
REMARK  187  A    between atoms: _445  and  _446
REMARK  188  A    between atoms: _449  and  _451
REMARK  189  A    between atoms: _451  and  _452
REMARK  190  A    between atoms: _451  and  _454
REMARK  191  A    between atoms: _454  and  _455
REMARK  192  A    between atoms: _460  and  _462
REMARK  193  A    between atoms: _462  and  _463
REMARK  194  A    between atoms: _462  and  _465
REMARK  195  A    between atoms: _465  and  _466
REMARK  196  A    between atoms: _466  and  _467
REMARK  197  A    between atoms: _467  and  _468
REMARK  198  A    between atoms: _468  and  _469
REMARK  199  A    between atoms: _473  and  _475
REMARK  200  A    between atoms: _475  and  _476
REMARK  201  A    between atoms: _475  and  _478
REMARK  202  A    between atoms: _478  and  _479
REMARK  203  A    between atoms: _482  and  _484
REMARK  204  A    between atoms: _484  and  _485
REMARK  205  A    between atoms: _487  and  _489
REMARK  206  A    between atoms: _489  and  _490
REMARK  207  A    between atoms: _489  and  _492
REMARK  208  A    between atoms: _492  and  _493
REMARK  209  A    between atoms: _498  and  _499
REMARK  210  A    between atoms: _501  and  _503
REMARK  211  A    between atoms: _503  and  _504
REMARK  212  A    between atoms: _503  and  _506
REMARK  213  A    between atoms: _506  and  _507
REMARK  214  A    between atoms: _512  and  _513
REMARK  215  A    between atoms: _515  and  _517
REMARK  216  A    between atoms: _517  and  _518
REMARK  217  A    between atoms: _517  and  _520
REMARK  218  A    between atoms: _520  and  _521
REMARK  219  A    between atoms: _524  and  _526
REMARK  220  A    between atoms: _526  and  _527
REMARK  221  A    between atoms: _526  and  _529
REMARK  222  A    between atoms: _529  and  _530
REMARK  223  A    between atoms: _535  and  _537
REMARK  224  A    between atoms: _537  and  _538
REMARK  225  A    between atoms: _537  and  _540
REMARK  226  A    between atoms: _540  and  _541
REMARK  227  A    between atoms: _546  and  _547
REMARK                            x       y       z     vdW  Elec       q    Type
REMARK                         _______ _______ _______ _____ _____    ______ ____
ROOT
ATOM      1  O   HOH     1      46.155 270.844 168.501  0.00  0.00    +0.000 OA
ENDROOT
TORSDOF 0
REMARK  Name = ../refined-set-2016/4ymh/4ymh_pocket.pdb
REMARK  227 active torsions:
REMARK  status: ('A' for Active; 'I' for Inactive)
REMARK    1  A    between atoms: _1  and  _3
REMARK    2  A    between atoms: _3  and  _4
REMARK    3  A    between atoms: _3  and  _6
REMARK    4  A    between atoms: _6  and  _7
REMARK    5  A    between atoms: _12  and  _14
REMARK    6  A    between atoms: _14  and  _15
REMARK    7  A    between atoms: _14  and  _17
REMARK    8  A    between atoms: _17  and  _18
REMARK    9  A    between atoms: _28  and  _30
REMARK   10  A    between atoms: _30  and  _31
REMARK   11  A    between atoms: _30  and  _33
REMARK   12  A    between atoms: _33  and  _34
REMARK   13  A    between atoms: _37  and  _39
REMARK   14  A    between atoms: _39  and  _40
REMARK   15  A    between atoms: _39  and  _42
REMARK   16  A    between atoms: _42  and  _43
REMARK   17  A    between atoms: _46  and  _48
REMARK   18  A    between atoms: _48  and  _49
REMARK   19  A    between atoms: _52  and  _54
REMARK   20  A    between atoms: _54  and  _55
REMARK   21  A    between atoms: _54  and  _57
REMARK   22  A    between atoms: _57  and  _58
REMARK   23  A    between atoms: _61  and  _63
REMARK   24  A    between atoms: _63  and  _64
REMARK   25  A    between atoms: _63  and  _66
REMARK   26  A    between atoms: _66  and  _67
REMARK   27  A    between atoms: _67  and  _68
REMARK   28  A    between atoms: _68  and  _69
REMARK   29  A    between atoms: _69  and  _70
REMARK   30  A    between atoms: _74  and  _76
REMARK   31  A    between atoms: _76  and  _77
REMARK   32  A    between atoms: _76  and  _79
REMARK   33  A    between atoms: _79  and  _80
REMARK   34  A    between atoms: _80  and  _81
REMARK   35  A    between atoms: _83  and  _85
REMARK   36  A    between atoms: _85  and  _86
REMARK   37  A    between atoms: _85  and  _88
REMARK   38  A    between atoms: _88  and  _89
REMARK   39  A    between atoms: _91  and  _93
REMARK   40  A    between atoms: _93  and  _94
REMARK   41  A    between atoms: _93  and  _96
REMARK   42  A    between atoms: _96  and  _97
REMARK   43  A    between atoms: _99  and  _101
REMARK   44  A    between atoms: _101  and  _102
REMARK   45  A    between atoms: _101  and  _104
REMARK   46  A    between atoms: _104  and  _105
REMARK   47  A    between atoms: _105  and  _106
REMARK   48  A    between atoms: _111  and  _113
REMARK   49  A    between atoms: _113  and  _114
REMARK   50  A    between atoms: _116  and  _118
REMARK   51  A    between atoms: _118  and  _119
REMARK   52  A    between atoms: _118  and  _121
REMARK   53  A    between atoms: _121  and  _122
REMARK   54  A    between atoms: _122  and  _123
REMARK   55  A    between atoms: _125  and  _127
REMARK   56  A    between atoms: _127  and  _128
REMARK   57  A    between atoms: _127  and  _130
REMARK   58  A    between atoms: _130  and  _131
REMARK   59  A    between atoms: _131  and  _132
REMARK   60  A    between atoms: _135  and  _137
REMARK   61  A    between atoms: _137  and  _138
REMARK   62  A    between atoms: _137  and  _140
REMARK   63  A    between atoms: _140  and  _141
REMARK   64  A    between atoms: _144  and  _146
REMARK   65  A    between atoms: _146  and  _147
REMARK   66  A    between atoms: _149  and  _151
REMARK   67  A    between atoms: _151  and  _152
REMARK   68  A    between atoms: _151  and  _154
REMARK   69  A    between atoms: _156  and  _158
REMARK   70  A    between atoms: _158  and  _159
REMARK   71  A    between atoms: _158  and  _161
REMARK   72  A    between atoms: _161  and  _162
REMARK   73  A    between atoms: _167  and  _168
REMARK   74  A    between atoms: _170  and  _172
REMARK   75  A    between atoms: _172  and  _173
REMARK   76  A    between atoms: _172  and  _175
REMARK   77  A    between atoms: _175  and  _176
REMARK   78  A    between atoms: _178  and  _180
REMARK   79  A    between atoms: _180  and  _181
REMARK   80  A    between atoms: _183  and  _185
REMARK   81  A    between atoms: _185  and  _186
REMARK   82  A    between atoms: _185  and  _188
REMARK   83  A    between atoms: _188  and  _189
REMARK   84  A    between atoms: _194  and  _195
REMARK   85  A    between atoms: _197  and  _199
REMARK   86  A    between atoms: _199  and  _200
REMARK   87  A    between atoms: _199  and  _202
REMARK   88  A    between atoms: _202  and  _203
REMARK   89  A    between atoms: _205  and  _207
REMARK   90  A    between atoms: _207  and  _208
REMARK   91  A    between atoms: _211  and  _213
REMARK   92  A    between atoms: _213  and  _214
REMARK   93  A    between atoms: _213  and  _216
REMARK   94  A    between atoms: _216  and  _217
REMARK   95  A    between atoms: _220  and  _222
REMARK   96  A    between atoms: _222  and  _223
REMARK   97  A    between atoms: _226  and  _228
REMARK   98  A    between atoms: _228  and  _229
REMARK   99  A    between atoms: _228  and  _231
REMARK  100  A    between atoms: _231  and  _232
REMARK  101  A    between atoms: _242  and  _244
REMARK  102  A    between atoms: _244  and  _245
REMARK  103  A    between atoms: _244  and  _247
REMARK  104  A    between atoms: _247  and  _248
REMARK  105  A    between atoms: _251  and  _253
REMARK  106  A    between atoms: _253  and  _254
REMARK  107  A    between atoms: _253  and  _256
REMARK  108  A    between atoms: _256  and  _257
REMARK  109  A    between atoms: _260  and  _262
REMARK  110  A    between atoms: _262  and  _263
REMARK  111  A    between atoms: _262  and  _265
REMARK  112  A    between atoms: _265  and  _266
REMARK  113  A    between atoms: _266  and  _267
REMARK  114  A    between atoms: _270  and  _272
REMARK  115  A    between atoms: _272  and  _273
REMARK  116  A    between atoms: _272  and  _275
REMARK  117  A    between atoms: _275  and  _276
REMARK  118  A    between atoms: _281  and  _282
REMARK  119  A    between atoms: _284  and  _286
REMARK  120  A    between atoms: _286  and  _287
REMARK  121  A    between atoms: _286  and  _289
REMARK  122  A    between atoms: _289  and  _290
REMARK  123  A    between atoms: _293  and  _294
REMARK  124  A    between atoms: _299  and  _301
REMARK  125  A    between atoms: _301  and  _302
REMARK  126  A    between atoms: _301  and  _304
REMARK  127  A    between atoms: _304  and  _305
REMARK  128  A    between atoms: _305  and  _306
REMARK  129  A    between atoms: _306  and  _307
REMARK  130  A    between atoms: _307  and  _308
REMARK  131  A    between atoms: _312  and  _314
REMARK  132  A    between atoms: _314  and  _315
REMARK  133  A    between atoms: _314  and  _317
REMARK  134  A    between atoms: _317  and  _318
REMARK  135  A    between atoms: _318  and  _319
REMARK  136  A    between atoms: _321  and  _323
REMARK  137  A    between atoms: _323  and  _324
REMARK  138  A    between atoms: _323  and  _326
REMARK  139  A    between atoms: _326  and  _327
REMARK  140  A    between atoms: _330  and  _332
REMARK  141  A    between atoms: _332  and  _333
REMARK  142  A    between atoms: _332  and  _335
REMARK  143  A    between atoms: _335  and  _336
REMARK  144  A    between atoms: _338  and  _340
REMARK  145  A    between atoms: _340  and  _341
REMARK  146  A    between atoms: _340  and  _343
REMARK  147  A    between atoms: _343  and  _344
REMARK  148  A    between atoms: _347  and  _349
REMARK  149  A    between atoms: _349  and  _350
REMARK  150  A    between atoms: _349  and  _352
REMARK  151  A    between atoms: _352  and  _353
REMARK  152  A    between atoms: _353  and  _354
REMARK  153  A    between atoms: _357  and  _359
REMARK  154  A    between atoms: _359  and  _360
REMARK  155  A    between atoms: _363  and  _364
REMARK  156  A    between atoms: _369  and  _371
REMARK  157  A    between atoms: _371  and  _372
REMARK  158  A    between atoms: _375  and  _377
REMARK  159  A    between atoms: _377  and  _378
REMARK  160  A    between atoms: _377  and  _380
REMARK  161  A    between atoms: _380  and  _381
REMARK  162  A    between atoms: _381  and  _382
REMARK  163  A    between atoms: _385  and  _387
REMARK  164  A    between atoms: _387  and  _388
REMARK  165  A    between atoms: _387  and  _390
REMARK  166  A    between atoms: _390  and  _391
REMARK  167  A    between atoms: _396  and  _398
REMARK  168  A    between atoms: _398  and  _399
REMARK  169  A    between atoms: _398  and  _401
REMARK  170  A    between atoms: _401  and  _402
REMARK  171  A    between atoms: _405  and  _407
REMARK  172  A    between atoms: _407  and  _408
REMARK  173  A    between atoms: _407  and  _410
REMARK  174  A    between atoms: _410  and  _411
REMARK  175  A    between atoms: _414  and  _416
REMARK  176  A    between atoms: _416  and  _417
REMARK  177  A    between atoms: _416  and  _419
REMARK  178  A    between atoms: _419  and  _420
REMARK  179  A    between atoms: _426  and  _428
REMARK  180  A    between atoms: _428  and  _429
REMARK  181  A    between atoms: _428  and  _431
REMARK  182  A    between atoms: _434  and  _436
REMARK  183  A    between atoms: _436  and  _437
REMARK  184  A    between atoms: _436  and  _439
REMARK  185  A    between atoms: _439  and  _440
REMARK  186  A    between atoms: _443  and  _445
REMARK  187  A    between atoms: _445  and  _446
REMARK  188  A    between atoms: _449  and  _451
REMARK  189  A    between atoms: _451  and  _452
REMARK  190  A    between atoms: _451  and  _454
REMARK  191  A    between atoms: _454  and  _455
REMARK  192  A    between atoms: _460  and  _462
REMARK  193  A    between atoms: _462  and  _463
REMARK  194  A    between atoms: _462  and  _465
REMARK  195  A    between atoms: _465  and  _466
REMARK  196  A    between atoms: _466  and  _467
REMARK  197  A    between atoms: _467  and  _468
REMARK  198  A    between atoms: _468  and  _469
REMARK  199  A    between atoms: _473  and  _475
REMARK  200  A    between atoms: _475  and  _476
REMARK  201  A    between atoms: _475  and  _478
REMARK  202  A    between atoms: _478  and  _479
REMARK  203  A    between atoms: _482  and  _484
REMARK  204  A    between atoms: _484  and  _485
REMARK  205  A    between atoms: _487  and  _489
REMARK  206  A    between atoms: _489  and  _490
REMARK  207  A    between atoms: _489  and  _492
REMARK  208  A    between atoms: _492  and  _493
REMARK  209  A    between atoms: _498  and  _499
REMARK  210  A    between atoms: _501  and  _503
REMARK  211  A    between atoms: _503  and  _504
REMARK  212  A    between atoms: _503  and  _506
REMARK  213  A    between atoms: _506  and  _507
REMARK  214  A    between atoms: _512  and  _513
REMARK  215  A    between atoms: _515  and  _517
REMARK  216  A    between atoms: _517  and  _518
REMARK  217  A    between atoms: _517  and  _520
REMARK  218  A    between atoms: _520  and  _521
REMARK  219  A    between atoms: _524  and  _526
REMARK  220  A    between atoms: _526  and  _527
REMARK  221  A    between atoms: _526  and  _529
REMARK  222  A    between atoms: _529  and  _530
REMARK  223  A    between atoms: _535  and  _537
REMARK  224  A    between atoms: _537  and  _538
REMARK  225  A    between atoms: _537  and  _540
REMARK  226  A    between atoms: _540  and  _541
REMARK  227  A    between atoms: _546  and  _547
REMARK                            x       y       z     vdW  Elec       q    Type
REMARK                         _______ _______ _______ _____ _____    ______ ____
ROOT
ATOM      1  O   HOH     1      39.932 268.178 159.409  0.00  0.00    +0.000 OA
ENDROOT
TORSDOF 0
REMARK  Name = ../refined-set-2016/4ymh/4ymh_pocket.pdb
REMARK  227 active torsions:
REMARK  status: ('A' for Active; 'I' for Inactive)
REMARK    1  A    between atoms: _1  and  _3
REMARK    2  A    between atoms: _3  and  _4
REMARK    3  A    between atoms: _3  and  _6
REMARK    4  A    between atoms: _6  and  _7
REMARK    5  A    between atoms: _12  and  _14
REMARK    6  A    between atoms: _14  and  _15
REMARK    7  A    between atoms: _14  and  _17
REMARK    8  A    between atoms: _17  and  _18
REMARK    9  A    between atoms: _28  and  _30
REMARK   10  A    between atoms: _30  and  _31
REMARK   11  A    between atoms: _30  and  _33
REMARK   12  A    between atoms: _33  and  _34
REMARK   13  A    between atoms: _37  and  _39
REMARK   14  A    between atoms: _39  and  _40
REMARK   15  A    between atoms: _39  and  _42
REMARK   16  A    between atoms: _42  and  _43
REMARK   17  A    between atoms: _46  and  _48
REMARK   18  A    between atoms: _48  and  _49
REMARK   19  A    between atoms: _52  and  _54
REMARK   20  A    between atoms: _54  and  _55
REMARK   21  A    between atoms: _54  and  _57
REMARK   22  A    between atoms: _57  and  _58
REMARK   23  A    between atoms: _61  and  _63
REMARK   24  A    between atoms: _63  and  _64
REMARK   25  A    between atoms: _63  and  _66
REMARK   26  A    between atoms: _66  and  _67
REMARK   27  A    between atoms: _67  and  _68
REMARK   28  A    between atoms: _68  and  _69
REMARK   29  A    between atoms: _69  and  _70
REMARK   30  A    between atoms: _74  and  _76
REMARK   31  A    between atoms: _76  and  _77
REMARK   32  A    between atoms: _76  and  _79
REMARK   33  A    between atoms: _79  and  _80
REMARK   34  A    between atoms: _80  and  _81
REMARK   35  A    between atoms: _83  and  _85
REMARK   36  A    between atoms: _85  and  _86
REMARK   37  A    between atoms: _85  and  _88
REMARK   38  A    between atoms: _88  and  _89
REMARK   39  A    between atoms: _91  and  _93
REMARK   40  A    between atoms: _93  and  _94
REMARK   41  A    between atoms: _93  and  _96
REMARK   42  A    between atoms: _96  and  _97
REMARK   43  A    between atoms: _99  and  _101
REMARK   44  A    between atoms: _101  and  _102
REMARK   45  A    between atoms: _101  and  _104
REMARK   46  A    between atoms: _104  and  _105
REMARK   47  A    between atoms: _105  and  _106
REMARK   48  A    between atoms: _111  and  _113
REMARK   49  A    between atoms: _113  and  _114
REMARK   50  A    between atoms: _116  and  _118
REMARK   51  A    between atoms: _118  and  _119
REMARK   52  A    between atoms: _118  and  _121
REMARK   53  A    between atoms: _121  and  _122
REMARK   54  A    between atoms: _122  and  _123
REMARK   55  A    between atoms: _125  and  _127
REMARK   56  A    between atoms: _127  and  _128
REMARK   57  A    between atoms: _127  and  _130
REMARK   58  A    between atoms: _130  and  _131
REMARK   59  A    between atoms: _131  and  _132
REMARK   60  A    between atoms: _135  and  _137
REMARK   61  A    between atoms: _137  and  _138
REMARK   62  A    between atoms: _137  and  _140
REMARK   63  A    between atoms: _140  and  _141
REMARK   64  A    between atoms: _144  and  _146
REMARK   65  A    between atoms: _146  and  _147
REMARK   66  A    between atoms: _149  and  _151
REMARK   67  A    between atoms: _151  and  _152
REMARK   68  A    between atoms: _151  and  _154
REMARK   69  A    between atoms: _156  and  _158
REMARK   70  A    between atoms: _158  and  _159
REMARK   71  A    between atoms: _158  and  _161
REMARK   72  A    between atoms: _161  and  _162
REMARK   73  A    between atoms: _167  and  _168
REMARK   74  A    between atoms: _170  and  _172
REMARK   75  A    between atoms: _172  and  _173
REMARK   76  A    between atoms: _172  and  _175
REMARK   77  A    between atoms: _175  and  _176
REMARK   78  A    between atoms: _178  and  _180
REMARK   79  A    between atoms: _180  and  _181
REMARK   80  A    between atoms: _183  and  _185
REMARK   81  A    between atoms: _185  and  _186
REMARK   82  A    between atoms: _185  and  _188
REMARK   83  A    between atoms: _188  and  _189
REMARK   84  A    between atoms: _194  and  _195
REMARK   85  A    between atoms: _197  and  _199
REMARK   86  A    between atoms: _199  and  _200
REMARK   87  A    between atoms: _199  and  _202
REMARK   88  A    between atoms: _202  and  _203
REMARK   89  A    between atoms: _205  and  _207
REMARK   90  A    between atoms: _207  and  _208
REMARK   91  A    between atoms: _211  and  _213
REMARK   92  A    between atoms: _213  and  _214
REMARK   93  A    between atoms: _213  and  _216
REMARK   94  A    between atoms: _216  and  _217
REMARK   95  A    between atoms: _220  and  _222
REMARK   96  A    between atoms: _222  and  _223
REMARK   97  A    between atoms: _226  and  _228
REMARK   98  A    between atoms: _228  and  _229
REMARK   99  A    between atoms: _228  and  _231
REMARK  100  A    between atoms: _231  and  _232
REMARK  101  A    between atoms: _242  and  _244
REMARK  102  A    between atoms: _244  and  _245
REMARK  103  A    between atoms: _244  and  _247
REMARK  104  A    between atoms: _247  and  _248
REMARK  105  A    between atoms: _251  and  _253
REMARK  106  A    between atoms: _253  and  _254
REMARK  107  A    between atoms: _253  and  _256
REMARK  108  A    between atoms: _256  and  _257
REMARK  109  A    between atoms: _260  and  _262
REMARK  110  A    between atoms: _262  and  _263
REMARK  111  A    between atoms: _262  and  _265
REMARK  112  A    between atoms: _265  and  _266
REMARK  113  A    between atoms: _266  and  _267
REMARK  114  A    between atoms: _270  and  _272
REMARK  115  A    between atoms: _272  and  _273
REMARK  116  A    between atoms: _272  and  _275
REMARK  117  A    between atoms: _275  and  _276
REMARK  118  A    between atoms: _281  and  _282
REMARK  119  A    between atoms: _284  and  _286
REMARK  120  A    between atoms: _286  and  _287
REMARK  121  A    between atoms: _286  and  _289
REMARK  122  A    between atoms: _289  and  _290
REMARK  123  A    between atoms: _293  and  _294
REMARK  124  A    between atoms: _299  and  _301
REMARK  125  A    between atoms: _301  and  _302
REMARK  126  A    between atoms: _301  and  _304
REMARK  127  A    between atoms: _304  and  _305
REMARK  128  A    between atoms: _305  and  _306
REMARK  129  A    between atoms: _306  and  _307
REMARK  130  A    between atoms: _307  and  _308
REMARK  131  A    between atoms: _312  and  _314
REMARK  132  A    between atoms: _314  and  _315
REMARK  133  A    between atoms: _314  and  _317
REMARK  134  A    between atoms: _317  and  _318
REMARK  135  A    between atoms: _318  and  _319
REMARK  136  A    between atoms: _321  and  _323
REMARK  137  A    between atoms: _323  and  _324
REMARK  138  A    between atoms: _323  and  _326
REMARK  139  A    between atoms: _326  and  _327
REMARK  140  A    between atoms: _330  and  _332
REMARK  141  A    between atoms: _332  and  _333
REMARK  142  A    between atoms: _332  and  _335
REMARK  143  A    between atoms: _335  and  _336
REMARK  144  A    between atoms: _338  and  _340
REMARK  145  A    between atoms: _340  and  _341
REMARK  146  A    between atoms: _340  and  _343
REMARK  147  A    between atoms: _343  and  _344
REMARK  148  A    between atoms: _347  and  _349
REMARK  149  A    between atoms: _349  and  _350
REMARK  150  A    between atoms: _349  and  _352
REMARK  151  A    between atoms: _352  and  _353
REMARK  152  A    between atoms: _353  and  _354
REMARK  153  A    between atoms: _357  and  _359
REMARK  154  A    between atoms: _359  and  _360
REMARK  155  A    between atoms: _363  and  _364
REMARK  156  A    between atoms: _369  and  _371
REMARK  157  A    between atoms: _371  and  _372
REMARK  158  A    between atoms: _375  and  _377
REMARK  159  A    between atoms: _377  and  _378
REMARK  160  A    between atoms: _377  and  _380
REMARK  161  A    between atoms: _380  and  _381
REMARK  162  A    between atoms: _381  and  _382
REMARK  163  A    between atoms: _385  and  _387
REMARK  164  A    between atoms: _387  and  _388
REMARK  165  A    between atoms: _387  and  _390
REMARK  166  A    between atoms: _390  and  _391
REMARK  167  A    between atoms: _396  and  _398
REMARK  168  A    between atoms: _398  and  _399
REMARK  169  A    between atoms: _398  and  _401
REMARK  170  A    between atoms: _401  and  _402
REMARK  171  A    between atoms: _405  and  _407
REMARK  172  A    between atoms: _407  and  _408
REMARK  173  A    between atoms: _407  and  _410
REMARK  174  A    between atoms: _410  and  _411
REMARK  175  A    between atoms: _414  and  _416
REMARK  176  A    between atoms: _416  and  _417
REMARK  177  A    between atoms: _416  and  _419
REMARK  178  A    between atoms: _419  and  _420
REMARK  179  A    between atoms: _426  and  _428
REMARK  180  A    between atoms: _428  and  _429
REMARK  181  A    between atoms: _428  and  _431
REMARK  182  A    between atoms: _434  and  _436
REMARK  183  A    between atoms: _436  and  _437
REMARK  184  A    between atoms: _436  and  _439
REMARK  185  A    between atoms: _439  and  _440
REMARK  186  A    between atoms: _443  and  _445
REMARK  187  A    between atoms: _445  and  _446
REMARK  188  A    between atoms: _449  and  _451
REMARK  189  A    between atoms: _451  and  _452
REMARK  190  A    between atoms: _451  and  _454
REMARK  191  A    between atoms: _454  and  _455
REMARK  192  A    between atoms: _460  and  _462
REMARK  193  A    between atoms: _462  and  _463
REMARK  194  A    between atoms: _462  and  _465
REMARK  195  A    between atoms: _465  and  _466
REMARK  196  A    between atoms: _466  and  _467
REMARK  197  A    between atoms: _467  and  _468
REMARK  198  A    between atoms: _468  and  _469
REMARK  199  A    between atoms: _473  and  _475
REMARK  200  A    between atoms: _475  and  _476
REMARK  201  A    between atoms: _475  and  _478
REMARK  202  A    between atoms: _478  and  _479
REMARK  203  A    between atoms: _482  and  _484
REMARK  204  A    between atoms: _484  and  _485
REMARK  205  A    between atoms: _487  and  _489
REMARK  206  A    between atoms: _489  and  _490
REMARK  207  A    between atoms: _489  and  _492
REMARK  208  A    between atoms: _492  and  _493
REMARK  209  A    between atoms: _498  and  _499
REMARK  210  A    between atoms: _501  and  _503
REMARK  211  A    between atoms: _503  and  _504
REMARK  212  A    between atoms: _503  and  _506
REMARK  213  A    between atoms: _506  and  _507
REMARK  214  A    between atoms: _512  and  _513
REMARK  215  A    between atoms: _515  and  _517
REMARK  216  A    between atoms: _517  and  _518
REMARK  217  A    between atoms: _517  and  _520
REMARK  218  A    between atoms: _520  and  _521
REMARK  219  A    between atoms: _524  and  _526
REMARK  220  A    between atoms: _526  and  _527
REMARK  221  A    between atoms: _526  and  _529
REMARK  222  A    between atoms: _529  and  _530
REMARK  223  A    between atoms: _535  and  _537
REMARK  224  A    between atoms: _537  and  _538
REMARK  225  A    between atoms: _537  and  _540
REMARK  226  A    between atoms: _540  and  _541
REMARK  227  A    between atoms: _546  and  _547
REMARK                            x       y       z     vdW  Elec       q    Type
REMARK                         _______ _______ _______ _____ _____    ______ ____
ROOT
ATOM      1  O   HOH     1      38.289 272.123 150.464  0.00  0.00    +0.000 OA
ENDROOT
TORSDOF 0
REMARK  Name = ../refined-set-2016/4ymh/4ymh_pocket.pdb
REMARK  227 active torsions:
REMARK  status: ('A' for Active; 'I' for Inactive)
REMARK    1  A    between atoms: _1  and  _3
REMARK    2  A    between atoms: _3  and  _4
REMARK    3  A    between atoms: _3  and  _6
REMARK    4  A    between atoms: _6  and  _7
REMARK    5  A    between atoms: _12  and  _14
REMARK    6  A    between atoms: _14  and  _15
REMARK    7  A    between atoms: _14  and  _17
REMARK    8  A    between atoms: _17  and  _18
REMARK    9  A    between atoms: _28  and  _30
REMARK   10  A    between atoms: _30  and  _31
REMARK   11  A    between atoms: _30  and  _33
REMARK   12  A    between atoms: _33  and  _34
REMARK   13  A    between atoms: _37  and  _39
REMARK   14  A    between atoms: _39  and  _40
REMARK   15  A    between atoms: _39  and  _42
REMARK   16  A    between atoms: _42  and  _43
REMARK   17  A    between atoms: _46  and  _48
REMARK   18  A    between atoms: _48  and  _49
REMARK   19  A    between atoms: _52  and  _54
REMARK   20  A    between atoms: _54  and  _55
REMARK   21  A    between atoms: _54  and  _57
REMARK   22  A    between atoms: _57  and  _58
REMARK   23  A    between atoms: _61  and  _63
REMARK   24  A    between atoms: _63  and  _64
REMARK   25  A    between atoms: _63  and  _66
REMARK   26  A    between atoms: _66  and  _67
REMARK   27  A    between atoms: _67  and  _68
REMARK   28  A    between atoms: _68  and  _69
REMARK   29  A    between atoms: _69  and  _70
REMARK   30  A    between atoms: _74  and  _76
REMARK   31  A    between atoms: _76  and  _77
REMARK   32  A    between atoms: _76  and  _79
REMARK   33  A    between atoms: _79  and  _80
REMARK   34  A    between atoms: _80  and  _81
REMARK   35  A    between atoms: _83  and  _85
REMARK   36  A    between atoms: _85  and  _86
REMARK   37  A    between atoms: _85  and  _88
REMARK   38  A    between atoms: _88  and  _89
REMARK   39  A    between atoms: _91  and  _93
REMARK   40  A    between atoms: _93  and  _94
REMARK   41  A    between atoms: _93  and  _96
REMARK   42  A    between atoms: _96  and  _97
REMARK   43  A    between atoms: _99  and  _101
REMARK   44  A    between atoms: _101  and  _102
REMARK   45  A    between atoms: _101  and  _104
REMARK   46  A    between atoms: _104  and  _105
REMARK   47  A    between atoms: _105  and  _106
REMARK   48  A    between atoms: _111  and  _113
REMARK   49  A    between atoms: _113  and  _114
REMARK   50  A    between atoms: _116  and  _118
REMARK   51  A    between atoms: _118  and  _119
REMARK   52  A    between atoms: _118  and  _121
REMARK   53  A    between atoms: _121  and  _122
REMARK   54  A    between atoms: _122  and  _123
REMARK   55  A    between atoms: _125  and  _127
REMARK   56  A    between atoms: _127  and  _128
REMARK   57  A    between atoms: _127  and  _130
REMARK   58  A    between atoms: _130  and  _131
REMARK   59  A    between atoms: _131  and  _132
REMARK   60  A    between atoms: _135  and  _137
REMARK   61  A    between atoms: _137  and  _138
REMARK   62  A    between atoms: _137  and  _140
REMARK   63  A    between atoms: _140  and  _141
REMARK   64  A    between atoms: _144  and  _146
REMARK   65  A    between atoms: _146  and  _147
REMARK   66  A    between atoms: _149  and  _151
REMARK   67  A    between atoms: _151  and  _152
REMARK   68  A    between atoms: _151  and  _154
REMARK   69  A    between atoms: _156  and  _158
REMARK   70  A    between atoms: _158  and  _159
REMARK   71  A    between atoms: _158  and  _161
REMARK   72  A    between atoms: _161  and  _162
REMARK   73  A    between atoms: _167  and  _168
REMARK   74  A    between atoms: _170  and  _172
REMARK   75  A    between atoms: _172  and  _173
REMARK   76  A    between atoms: _172  and  _175
REMARK   77  A    between atoms: _175  and  _176
REMARK   78  A    between atoms: _178  and  _180
REMARK   79  A    between atoms: _180  and  _181
REMARK   80  A    between atoms: _183  and  _185
REMARK   81  A    between atoms: _185  and  _186
REMARK   82  A    between atoms: _185  and  _188
REMARK   83  A    between atoms: _188  and  _189
REMARK   84  A    between atoms: _194  and  _195
REMARK   85  A    between atoms: _197  and  _199
REMARK   86  A    between atoms: _199  and  _200
REMARK   87  A    between atoms: _199  and  _202
REMARK   88  A    between atoms: _202  and  _203
REMARK   89  A    between atoms: _205  and  _207
REMARK   90  A    between atoms: _207  and  _208
REMARK   91  A    between atoms: _211  and  _213
REMARK   92  A    between atoms: _213  and  _214
REMARK   93  A    between atoms: _213  and  _216
REMARK   94  A    between atoms: _216  and  _217
REMARK   95  A    between atoms: _220  and  _222
REMARK   96  A    between atoms: _222  and  _223
REMARK   97  A    between atoms: _226  and  _228
REMARK   98  A    between atoms: _228  and  _229
REMARK   99  A    between atoms: _228  and  _231
REMARK  100  A    between atoms: _231  and  _232
REMARK  101  A    between atoms: _242  and  _244
REMARK  102  A    between atoms: _244  and  _245
REMARK  103  A    between atoms: _244  and  _247
REMARK  104  A    between atoms: _247  and  _248
REMARK  105  A    between atoms: _251  and  _253
REMARK  106  A    between atoms: _253  and  _254
REMARK  107  A    between atoms: _253  and  _256
REMARK  108  A    between atoms: _256  and  _257
REMARK  109  A    between atoms: _260  and  _262
REMARK  110  A    between atoms: _262  and  _263
REMARK  111  A    between atoms: _262  and  _265
REMARK  112  A    between atoms: _265  and  _266
REMARK  113  A    between atoms: _266  and  _267
REMARK  114  A    between atoms: _270  and  _272
REMARK  115  A    between atoms: _272  and  _273
REMARK  116  A    between atoms: _272  and  _275
REMARK  117  A    between atoms: _275  and  _276
REMARK  118  A    between atoms: _281  and  _282
REMARK  119  A    between atoms: _284  and  _286
REMARK  120  A    between atoms: _286  and  _287
REMARK  121  A    between atoms: _286  and  _289
REMARK  122  A    between atoms: _289  and  _290
REMARK  123  A    between atoms: _293  and  _294
REMARK  124  A    between atoms: _299  and  _301
REMARK  125  A    between atoms: _301  and  _302
REMARK  126  A    between atoms: _301  and  _304
REMARK  127  A    between atoms: _304  and  _305
REMARK  128  A    between atoms: _305  and  _306
REMARK  129  A    between atoms: _306  and  _307
REMARK  130  A    between atoms: _307  and  _308
REMARK  131  A    between atoms: _312  and  _314
REMARK  132  A    between atoms: _314  and  _315
REMARK  133  A    between atoms: _314  and  _317
REMARK  134  A    between atoms: _317  and  _318
REMARK  135  A    between atoms: _318  and  _319
REMARK  136  A    between atoms: _321  and  _323
REMARK  137  A    between atoms: _323  and  _324
REMARK  138  A    between atoms: _323  and  _326
REMARK  139  A    between atoms: _326  and  _327
REMARK  140  A    between atoms: _330  and  _332
REMARK  141  A    between atoms: _332  and  _333
REMARK  142  A    between atoms: _332  and  _335
REMARK  143  A    between atoms: _335  and  _336
REMARK  144  A    between atoms: _338  and  _340
REMARK  145  A    between atoms: _340  and  _341
REMARK  146  A    between atoms: _340  and  _343
REMARK  147  A    between atoms: _343  and  _344
REMARK  148  A    between atoms: _347  and  _349
REMARK  149  A    between atoms: _349  and  _350
REMARK  150  A    between atoms: _349  and  _352
REMARK  151  A    between atoms: _352  and  _353
REMARK  152  A    between atoms: _353  and  _354
REMARK  153  A    between atoms: _357  and  _359
REMARK  154  A    between atoms: _359  and  _360
REMARK  155  A    between atoms: _363  and  _364
REMARK  156  A    between atoms: _369  and  _371
REMARK  157  A    between atoms: _371  and  _372
REMARK  158  A    between atoms: _375  and  _377
REMARK  159  A    between atoms: _377  and  _378
REMARK  160  A    between atoms: _377  and  _380
REMARK  161  A    between atoms: _380  and  _381
REMARK  162  A    between atoms: _381  and  _382
REMARK  163  A    between atoms: _385  and  _387
REMARK  164  A    between atoms: _387  and  _388
REMARK  165  A    between atoms: _387  and  _390
REMARK  166  A    between atoms: _390  and  _391
REMARK  167  A    between atoms: _396  and  _398
REMARK  168  A    between atoms: _398  and  _399
REMARK  169  A    between atoms: _398  and  _401
REMARK  170  A    between atoms: _401  and  _402
REMARK  171  A    between atoms: _405  and  _407
REMARK  172  A    between atoms: _407  and  _408
REMARK  173  A    between atoms: _407  and  _410
REMARK  174  A    between atoms: _410  and  _411
REMARK  175  A    between atoms: _414  and  _416
REMARK  176  A    between atoms: _416  and  _417
REMARK  177  A    between atoms: _416  and  _419
REMARK  178  A    between atoms: _419  and  _420
REMARK  179  A    between atoms: _426  and  _428
REMARK  180  A    between atoms: _428  and  _429
REMARK  181  A    between atoms: _428  and  _431
REMARK  182  A    between atoms: _434  and  _436
REMARK  183  A    between atoms: _436  and  _437
REMARK  184  A    between atoms: _436  and  _439
REMARK  185  A    between atoms: _439  and  _440
REMARK  186  A    between atoms: _443  and  _445
REMARK  187  A    between atoms: _445  and  _446
REMARK  188  A    between atoms: _449  and  _451
REMARK  189  A    between atoms: _451  and  _452
REMARK  190  A    between atoms: _451  and  _454
REMARK  191  A    between atoms: _454  and  _455
REMARK  192  A    between atoms: _460  and  _462
REMARK  193  A    between atoms: _462  and  _463
REMARK  194  A    between atoms: _462  and  _465
REMARK  195  A    between atoms: _465  and  _466
REMARK  196  A    between atoms: _466  and  _467
REMARK  197  A    between atoms: _467  and  _468
REMARK  198  A    between atoms: _468  and  _469
REMARK  199  A    between atoms: _473  and  _475
REMARK  200  A    between atoms: _475  and  _476
REMARK  201  A    between atoms: _475  and  _478
REMARK  202  A    between atoms: _478  and  _479
REMARK  203  A    between atoms: _482  and  _484
REMARK  204  A    between atoms: _484  and  _485
REMARK  205  A    between atoms: _487  and  _489
REMARK  206  A    between atoms: _489  and  _490
REMARK  207  A    between atoms: _489  and  _492
REMARK  208  A    between atoms: _492  and  _493
REMARK  209  A    between atoms: _498  and  _499
REMARK  210  A    between atoms: _501  and  _503
REMARK  211  A    between atoms: _503  and  _504
REMARK  212  A    between atoms: _503  and  _506
REMARK  213  A    between atoms: _506  and  _507
REMARK  214  A    between atoms: _512  and  _513
REMARK  215  A    between atoms: _515  and  _517
REMARK  216  A    between atoms: _517  and  _518
REMARK  217  A    between atoms: _517  and  _520
REMARK  218  A    between atoms: _520  and  _521
REMARK  219  A    between atoms: _524  and  _526
REMARK  220  A    between atoms: _526  and  _527
REMARK  221  A    between atoms: _526  and  _529
REMARK  222  A    between atoms: _529  and  _530
REMARK  223  A    between atoms: _535  and  _537
REMARK  224  A    between atoms: _537  and  _538
REMARK  225  A    between atoms: _537  and  _540
REMARK  226  A    between atoms: _540  and  _541
REMARK  227  A    between atoms: _546  and  _547
REMARK                            x       y       z     vdW  Elec       q    Type
REMARK                         _______ _______ _______ _____ _____    ______ ____
ROOT
ATOM      1  O   HOH     1      36.658 270.351 151.011  0.00  0.00    +0.000 OA
ENDROOT
TORSDOF 0
REMARK  Name = ../refined-set-2016/4ymh/4ymh_pocket.pdb
REMARK  227 active torsions:
REMARK  status: ('A' for Active; 'I' for Inactive)
REMARK    1  A    between atoms: _1  and  _3
REMARK    2  A    between atoms: _3  and  _4
REMARK    3  A    between atoms: _3  and  _6
REMARK    4  A    between atoms: _6  and  _7
REMARK    5  A    between atoms: _12  and  _14
REMARK    6  A    between atoms: _14  and  _15
REMARK    7  A    between atoms: _14  and  _17
REMARK    8  A    between atoms: _17  and  _18
REMARK    9  A    between atoms: _28  and  _30
REMARK   10  A    between atoms: _30  and  _31
REMARK   11  A    between atoms: _30  and  _33
REMARK   12  A    between atoms: _33  and  _34
REMARK   13  A    between atoms: _37  and  _39
REMARK   14  A    between atoms: _39  and  _40
REMARK   15  A    between atoms: _39  and  _42
REMARK   16  A    between atoms: _42  and  _43
REMARK   17  A    between atoms: _46  and  _48
REMARK   18  A    between atoms: _48  and  _49
REMARK   19  A    between atoms: _52  and  _54
REMARK   20  A    between atoms: _54  and  _55
REMARK   21  A    between atoms: _54  and  _57
REMARK   22  A    between atoms: _57  and  _58
REMARK   23  A    between atoms: _61  and  _63
REMARK   24  A    between atoms: _63  and  _64
REMARK   25  A    between atoms: _63  and  _66
REMARK   26  A    between atoms: _66  and  _67
REMARK   27  A    between atoms: _67  and  _68
REMARK   28  A    between atoms: _68  and  _69
REMARK   29  A    between atoms: _69  and  _70
REMARK   30  A    between atoms: _74  and  _76
REMARK   31  A    between atoms: _76  and  _77
REMARK   32  A    between atoms: _76  and  _79
REMARK   33  A    between atoms: _79  and  _80
REMARK   34  A    between atoms: _80  and  _81
REMARK   35  A    between atoms: _83  and  _85
REMARK   36  A    between atoms: _85  and  _86
REMARK   37  A    between atoms: _85  and  _88
REMARK   38  A    between atoms: _88  and  _89
REMARK   39  A    between atoms: _91  and  _93
REMARK   40  A    between atoms: _93  and  _94
REMARK   41  A    between atoms: _93  and  _96
REMARK   42  A    between atoms: _96  and  _97
REMARK   43  A    between atoms: _99  and  _101
REMARK   44  A    between atoms: _101  and  _102
REMARK   45  A    between atoms: _101  and  _104
REMARK   46  A    between atoms: _104  and  _105
REMARK   47  A    between atoms: _105  and  _106
REMARK   48  A    between atoms: _111  and  _113
REMARK   49  A    between atoms: _113  and  _114
REMARK   50  A    between atoms: _116  and  _118
REMARK   51  A    between atoms: _118  and  _119
REMARK   52  A    between atoms: _118  and  _121
REMARK   53  A    between atoms: _121  and  _122
REMARK   54  A    between atoms: _122  and  _123
REMARK   55  A    between atoms: _125  and  _127
REMARK   56  A    between atoms: _127  and  _128
REMARK   57  A    between atoms: _127  and  _130
REMARK   58  A    between atoms: _130  and  _131
REMARK   59  A    between atoms: _131  and  _132
REMARK   60  A    between atoms: _135  and  _137
REMARK   61  A    between atoms: _137  and  _138
REMARK   62  A    between atoms: _137  and  _140
REMARK   63  A    between atoms: _140  and  _141
REMARK   64  A    between atoms: _144  and  _146
REMARK   65  A    between atoms: _146  and  _147
REMARK   66  A    between atoms: _149  and  _151
REMARK   67  A    between atoms: _151  and  _152
REMARK   68  A    between atoms: _151  and  _154
REMARK   69  A    between atoms: _156  and  _158
REMARK   70  A    between atoms: _158  and  _159
REMARK   71  A    between atoms: _158  and  _161
REMARK   72  A    between atoms: _161  and  _162
REMARK   73  A    between atoms: _167  and  _168
REMARK   74  A    between atoms: _170  and  _172
REMARK   75  A    between atoms: _172  and  _173
REMARK   76  A    between atoms: _172  and  _175
REMARK   77  A    between atoms: _175  and  _176
REMARK   78  A    between atoms: _178  and  _180
REMARK   79  A    between atoms: _180  and  _181
REMARK   80  A    between atoms: _183  and  _185
REMARK   81  A    between atoms: _185  and  _186
REMARK   82  A    between atoms: _185  and  _188
REMARK   83  A    between atoms: _188  and  _189
REMARK   84  A    between atoms: _194  and  _195
REMARK   85  A    between atoms: _197  and  _199
REMARK   86  A    between atoms: _199  and  _200
REMARK   87  A    between atoms: _199  and  _202
REMARK   88  A    between atoms: _202  and  _203
REMARK   89  A    between atoms: _205  and  _207
REMARK   90  A    between atoms: _207  and  _208
REMARK   91  A    between atoms: _211  and  _213
REMARK   92  A    between atoms: _213  and  _214
REMARK   93  A    between atoms: _213  and  _216
REMARK   94  A    between atoms: _216  and  _217
REMARK   95  A    between atoms: _220  and  _222
REMARK   96  A    between atoms: _222  and  _223
REMARK   97  A    between atoms: _226  and  _228
REMARK   98  A    between atoms: _228  and  _229
REMARK   99  A    between atoms: _228  and  _231
REMARK  100  A    between atoms: _231  and  _232
REMARK  101  A    between atoms: _242  and  _244
REMARK  102  A    between atoms: _244  and  _245
REMARK  103  A    between atoms: _244  and  _247
REMARK  104  A    between atoms: _247  and  _248
REMARK  105  A    between atoms: _251  and  _253
REMARK  106  A    between atoms: _253  and  _254
REMARK  107  A    between atoms: _253  and  _256
REMARK  108  A    between atoms: _256  and  _257
REMARK  109  A    between atoms: _260  and  _262
REMARK  110  A    between atoms: _262  and  _263
REMARK  111  A    between atoms: _262  and  _265
REMARK  112  A    between atoms: _265  and  _266
REMARK  113  A    between atoms: _266  and  _267
REMARK  114  A    between atoms: _270  and  _272
REMARK  115  A    between atoms: _272  and  _273
REMARK  116  A    between atoms: _272  and  _275
REMARK  117  A    between atoms: _275  and  _276
REMARK  118  A    between atoms: _281  and  _282
REMARK  119  A    between atoms: _284  and  _286
REMARK  120  A    between atoms: _286  and  _287
REMARK  121  A    between atoms: _286  and  _289
REMARK  122  A    between atoms: _289  and  _290
REMARK  123  A    between atoms: _293  and  _294
REMARK  124  A    between atoms: _299  and  _301
REMARK  125  A    between atoms: _301  and  _302
REMARK  126  A    between atoms: _301  and  _304
REMARK  127  A    between atoms: _304  and  _305
REMARK  128  A    between atoms: _305  and  _306
REMARK  129  A    between atoms: _306  and  _307
REMARK  130  A    between atoms: _307  and  _308
REMARK  131  A    between atoms: _312  and  _314
REMARK  132  A    between atoms: _314  and  _315
REMARK  133  A    between atoms: _314  and  _317
REMARK  134  A    between atoms: _317  and  _318
REMARK  135  A    between atoms: _318  and  _319
REMARK  136  A    between atoms: _321  and  _323
REMARK  137  A    between atoms: _323  and  _324
REMARK  138  A    between atoms: _323  and  _326
REMARK  139  A    between atoms: _326  and  _327
REMARK  140  A    between atoms: _330  and  _332
REMARK  141  A    between atoms: _332  and  _333
REMARK  142  A    between atoms: _332  and  _335
REMARK  143  A    between atoms: _335  and  _336
REMARK  144  A    between atoms: _338  and  _340
REMARK  145  A    between atoms: _340  and  _341
REMARK  146  A    between atoms: _340  and  _343
REMARK  147  A    between atoms: _343  and  _344
REMARK  148  A    between atoms: _347  and  _349
REMARK  149  A    between atoms: _349  and  _350
REMARK  150  A    between atoms: _349  and  _352
REMARK  151  A    between atoms: _352  and  _353
REMARK  152  A    between atoms: _353  and  _354
REMARK  153  A    between atoms: _357  and  _359
REMARK  154  A    between atoms: _359  and  _360
REMARK  155  A    between atoms: _363  and  _364
REMARK  156  A    between atoms: _369  and  _371
REMARK  157  A    between atoms: _371  and  _372
REMARK  158  A    between atoms: _375  and  _377
REMARK  159  A    between atoms: _377  and  _378
REMARK  160  A    between atoms: _377  and  _380
REMARK  161  A    between atoms: _380  and  _381
REMARK  162  A    between atoms: _381  and  _382
REMARK  163  A    between atoms: _385  and  _387
REMARK  164  A    between atoms: _387  and  _388
REMARK  165  A    between atoms: _387  and  _390
REMARK  166  A    between atoms: _390  and  _391
REMARK  167  A    between atoms: _396  and  _398
REMARK  168  A    between atoms: _398  and  _399
REMARK  169  A    between atoms: _398  and  _401
REMARK  170  A    between atoms: _401  and  _402
REMARK  171  A    between atoms: _405  and  _407
REMARK  172  A    between atoms: _407  and  _408
REMARK  173  A    between atoms: _407  and  _410
REMARK  174  A    between atoms: _410  and  _411
REMARK  175  A    between atoms: _414  and  _416
REMARK  176  A    between atoms: _416  and  _417
REMARK  177  A    between atoms: _416  and  _419
REMARK  178  A    between atoms: _419  and  _420
REMARK  179  A    between atoms: _426  and  _428
REMARK  180  A    between atoms: _428  and  _429
REMARK  181  A    between atoms: _428  and  _431
REMARK  182  A    between atoms: _434  and  _436
REMARK  183  A    between atoms: _436  and  _437
REMARK  184  A    between atoms: _436  and  _439
REMARK  185  A    between atoms: _439  and  _440
REMARK  186  A    between atoms: _443  and  _445
REMARK  187  A    between atoms: _445  and  _446
REMARK  188  A    between atoms: _449  and  _451
REMARK  189  A    between atoms: _451  and  _452
REMARK  190  A    between atoms: _451  and  _454
REMARK  191  A    between atoms: _454  and  _455
REMARK  192  A    between atoms: _460  and  _462
REMARK  193  A    between atoms: _462  and  _463
REMARK  194  A    between atoms: _462  and  _465
REMARK  195  A    between atoms: _465  and  _466
REMARK  196  A    between atoms: _466  and  _467
REMARK  197  A    between atoms: _467  and  _468
REMARK  198  A    between atoms: _468  and  _469
REMARK  199  A    between atoms: _473  and  _475
REMARK  200  A    between atoms: _475  and  _476
REMARK  201  A    between atoms: _475  and  _478
REMARK  202  A    between atoms: _478  and  _479
REMARK  203  A    between atoms: _482  and  _484
REMARK  204  A    between atoms: _484  and  _485
REMARK  205  A    between atoms: _487  and  _489
REMARK  206  A    between atoms: _489  and  _490
REMARK  207  A    between atoms: _489  and  _492
REMARK  208  A    between atoms: _492  and  _493
REMARK  209  A    between atoms: _498  and  _499
REMARK  210  A    between atoms: _501  and  _503
REMARK  211  A    between atoms: _503  and  _504
REMARK  212  A    between atoms: _503  and  _506
REMARK  213  A    between atoms: _506  and  _507
REMARK  214  A    between atoms: _512  and  _513
REMARK  215  A    between atoms: _515  and  _517
REMARK  216  A    between atoms: _517  and  _518
REMARK  217  A    between atoms: _517  and  _520
REMARK  218  A    between atoms: _520  and  _521
REMARK  219  A    between atoms: _524  and  _526
REMARK  220  A    between atoms: _526  and  _527
REMARK  221  A    between atoms: _526  and  _529
REMARK  222  A    between atoms: _529  and  _530
REMARK  223  A    between atoms: _535  and  _537
REMARK  224  A    between atoms: _537  and  _538
REMARK  225  A    between atoms: _537  and  _540
REMARK  226  A    between atoms: _540  and  _541
REMARK  227  A    between atoms: _546  and  _547
REMARK                            x       y       z     vdW  Elec       q    Type
REMARK                         _______ _______ _______ _____ _____    ______ ____
ROOT
ATOM      1  O   HOH     1      46.844 278.351 168.640  0.00  0.00    +0.000 OA
ENDROOT
TORSDOF 0
REMARK  Name = ../refined-set-2016/4ymh/4ymh_pocket.pdb
REMARK  227 active torsions:
REMARK  status: ('A' for Active; 'I' for Inactive)
REMARK    1  A    between atoms: _1  and  _3
REMARK    2  A    between atoms: _3  and  _4
REMARK    3  A    between atoms: _3  and  _6
REMARK    4  A    between atoms: _6  and  _7
REMARK    5  A    between atoms: _12  and  _14
REMARK    6  A    between atoms: _14  and  _15
REMARK    7  A    between atoms: _14  and  _17
REMARK    8  A    between atoms: _17  and  _18
REMARK    9  A    between atoms: _28  and  _30
REMARK   10  A    between atoms: _30  and  _31
REMARK   11  A    between atoms: _30  and  _33
REMARK   12  A    between atoms: _33  and  _34
REMARK   13  A    between atoms: _37  and  _39
REMARK   14  A    between atoms: _39  and  _40
REMARK   15  A    between atoms: _39  and  _42
REMARK   16  A    between atoms: _42  and  _43
REMARK   17  A    between atoms: _46  and  _48
REMARK   18  A    between atoms: _48  and  _49
REMARK   19  A    between atoms: _52  and  _54
REMARK   20  A    between atoms: _54  and  _55
REMARK   21  A    between atoms: _54  and  _57
REMARK   22  A    between atoms: _57  and  _58
REMARK   23  A    between atoms: _61  and  _63
REMARK   24  A    between atoms: _63  and  _64
REMARK   25  A    between atoms: _63  and  _66
REMARK   26  A    between atoms: _66  and  _67
REMARK   27  A    between atoms: _67  and  _68
REMARK   28  A    between atoms: _68  and  _69
REMARK   29  A    between atoms: _69  and  _70
REMARK   30  A    between atoms: _74  and  _76
REMARK   31  A    between atoms: _76  and  _77
REMARK   32  A    between atoms: _76  and  _79
REMARK   33  A    between atoms: _79  and  _80
REMARK   34  A    between atoms: _80  and  _81
REMARK   35  A    between atoms: _83  and  _85
REMARK   36  A    between atoms: _85  and  _86
REMARK   37  A    between atoms: _85  and  _88
REMARK   38  A    between atoms: _88  and  _89
REMARK   39  A    between atoms: _91  and  _93
REMARK   40  A    between atoms: _93  and  _94
REMARK   41  A    between atoms: _93  and  _96
REMARK   42  A    between atoms: _96  and  _97
REMARK   43  A    between atoms: _99  and  _101
REMARK   44  A    between atoms: _101  and  _102
REMARK   45  A    between atoms: _101  and  _104
REMARK   46  A    between atoms: _104  and  _105
REMARK   47  A    between atoms: _105  and  _106
REMARK   48  A    between atoms: _111  and  _113
REMARK   49  A    between atoms: _113  and  _114
REMARK   50  A    between atoms: _116  and  _118
REMARK   51  A    between atoms: _118  and  _119
REMARK   52  A    between atoms: _118  and  _121
REMARK   53  A    between atoms: _121  and  _122
REMARK   54  A    between atoms: _122  and  _123
REMARK   55  A    between atoms: _125  and  _127
REMARK   56  A    between atoms: _127  and  _128
REMARK   57  A    between atoms: _127  and  _130
REMARK   58  A    between atoms: _130  and  _131
REMARK   59  A    between atoms: _131  and  _132
REMARK   60  A    between atoms: _135  and  _137
REMARK   61  A    between atoms: _137  and  _138
REMARK   62  A    between atoms: _137  and  _140
REMARK   63  A    between atoms: _140  and  _141
REMARK   64  A    between atoms: _144  and  _146
REMARK   65  A    between atoms: _146  and  _147
REMARK   66  A    between atoms: _149  and  _151
REMARK   67  A    between atoms: _151  and  _152
REMARK   68  A    between atoms: _151  and  _154
REMARK   69  A    between atoms: _156  and  _158
REMARK   70  A    between atoms: _158  and  _159
REMARK   71  A    between atoms: _158  and  _161
REMARK   72  A    between atoms: _161  and  _162
REMARK   73  A    between atoms: _167  and  _168
REMARK   74  A    between atoms: _170  and  _172
REMARK   75  A    between atoms: _172  and  _173
REMARK   76  A    between atoms: _172  and  _175
REMARK   77  A    between atoms: _175  and  _176
REMARK   78  A    between atoms: _178  and  _180
REMARK   79  A    between atoms: _180  and  _181
REMARK   80  A    between atoms: _183  and  _185
REMARK   81  A    between atoms: _185  and  _186
REMARK   82  A    between atoms: _185  and  _188
REMARK   83  A    between atoms: _188  and  _189
REMARK   84  A    between atoms: _194  and  _195
REMARK   85  A    between atoms: _197  and  _199
REMARK   86  A    between atoms: _199  and  _200
REMARK   87  A    between atoms: _199  and  _202
REMARK   88  A    between atoms: _202  and  _203
REMARK   89  A    between atoms: _205  and  _207
REMARK   90  A    between atoms: _207  and  _208
REMARK   91  A    between atoms: _211  and  _213
REMARK   92  A    between atoms: _213  and  _214
REMARK   93  A    between atoms: _213  and  _216
REMARK   94  A    between atoms: _216  and  _217
REMARK   95  A    between atoms: _220  and  _222
REMARK   96  A    between atoms: _222  and  _223
REMARK   97  A    between atoms: _226  and  _228
REMARK   98  A    between atoms: _228  and  _229
REMARK   99  A    between atoms: _228  and  _231
REMARK  100  A    between atoms: _231  and  _232
REMARK  101  A    between atoms: _242  and  _244
REMARK  102  A    between atoms: _244  and  _245
REMARK  103  A    between atoms: _244  and  _247
REMARK  104  A    between atoms: _247  and  _248
REMARK  105  A    between atoms: _251  and  _253
REMARK  106  A    between atoms: _253  and  _254
REMARK  107  A    between atoms: _253  and  _256
REMARK  108  A    between atoms: _256  and  _257
REMARK  109  A    between atoms: _260  and  _262
REMARK  110  A    between atoms: _262  and  _263
REMARK  111  A    between atoms: _262  and  _265
REMARK  112  A    between atoms: _265  and  _266
REMARK  113  A    between atoms: _266  and  _267
REMARK  114  A    between atoms: _270  and  _272
REMARK  115  A    between atoms: _272  and  _273
REMARK  116  A    between atoms: _272  and  _275
REMARK  117  A    between atoms: _275  and  _276
REMARK  118  A    between atoms: _281  and  _282
REMARK  119  A    between atoms: _284  and  _286
REMARK  120  A    between atoms: _286  and  _287
REMARK  121  A    between atoms: _286  and  _289
REMARK  122  A    between atoms: _289  and  _290
REMARK  123  A    between atoms: _293  and  _294
REMARK  124  A    between atoms: _299  and  _301
REMARK  125  A    between atoms: _301  and  _302
REMARK  126  A    between atoms: _301  and  _304
REMARK  127  A    between atoms: _304  and  _305
REMARK  128  A    between atoms: _305  and  _306
REMARK  129  A    between atoms: _306  and  _307
REMARK  130  A    between atoms: _307  and  _308
REMARK  131  A    between atoms: _312  and  _314
REMARK  132  A    between atoms: _314  and  _315
REMARK  133  A    between atoms: _314  and  _317
REMARK  134  A    between atoms: _317  and  _318
REMARK  135  A    between atoms: _318  and  _319
REMARK  136  A    between atoms: _321  and  _323
REMARK  137  A    between atoms: _323  and  _324
REMARK  138  A    between atoms: _323  and  _326
REMARK  139  A    between atoms: _326  and  _327
REMARK  140  A    between atoms: _330  and  _332
REMARK  141  A    between atoms: _332  and  _333
REMARK  142  A    between atoms: _332  and  _335
REMARK  143  A    between atoms: _335  and  _336
REMARK  144  A    between atoms: _338  and  _340
REMARK  145  A    between atoms: _340  and  _341
REMARK  146  A    between atoms: _340  and  _343
REMARK  147  A    between atoms: _343  and  _344
REMARK  148  A    between atoms: _347  and  _349
REMARK  149  A    between atoms: _349  and  _350
REMARK  150  A    between atoms: _349  and  _352
REMARK  151  A    between atoms: _352  and  _353
REMARK  152  A    between atoms: _353  and  _354
REMARK  153  A    between atoms: _357  and  _359
REMARK  154  A    between atoms: _359  and  _360
REMARK  155  A    between atoms: _363  and  _364
REMARK  156  A    between atoms: _369  and  _371
REMARK  157  A    between atoms: _371  and  _372
REMARK  158  A    between atoms: _375  and  _377
REMARK  159  A    between atoms: _377  and  _378
REMARK  160  A    between atoms: _377  and  _380
REMARK  161  A    between atoms: _380  and  _381
REMARK  162  A    between atoms: _381  and  _382
REMARK  163  A    between atoms: _385  and  _387
REMARK  164  A    between atoms: _387  and  _388
REMARK  165  A    between atoms: _387  and  _390
REMARK  166  A    between atoms: _390  and  _391
REMARK  167  A    between atoms: _396  and  _398
REMARK  168  A    between atoms: _398  and  _399
REMARK  169  A    between atoms: _398  and  _401
REMARK  170  A    between atoms: _401  and  _402
REMARK  171  A    between atoms: _405  and  _407
REMARK  172  A    between atoms: _407  and  _408
REMARK  173  A    between atoms: _407  and  _410
REMARK  174  A    between atoms: _410  and  _411
REMARK  175  A    between atoms: _414  and  _416
REMARK  176  A    between atoms: _416  and  _417
REMARK  177  A    between atoms: _416  and  _419
REMARK  178  A    between atoms: _419  and  _420
REMARK  179  A    between atoms: _426  and  _428
REMARK  180  A    between atoms: _428  and  _429
REMARK  181  A    between atoms: _428  and  _431
REMARK  182  A    between atoms: _434  and  _436
REMARK  183  A    between atoms: _436  and  _437
REMARK  184  A    between atoms: _436  and  _439
REMARK  185  A    between atoms: _439  and  _440
REMARK  186  A    between atoms: _443  and  _445
REMARK  187  A    between atoms: _445  and  _446
REMARK  188  A    between atoms: _449  and  _451
REMARK  189  A    between atoms: _451  and  _452
REMARK  190  A    between atoms: _451  and  _454
REMARK  191  A    between atoms: _454  and  _455
REMARK  192  A    between atoms: _460  and  _462
REMARK  193  A    between atoms: _462  and  _463
REMARK  194  A    between atoms: _462  and  _465
REMARK  195  A    between atoms: _465  and  _466
REMARK  196  A    between atoms: _466  and  _467
REMARK  197  A    between atoms: _467  and  _468
REMARK  198  A    between atoms: _468  and  _469
REMARK  199  A    between atoms: _473  and  _475
REMARK  200  A    between atoms: _475  and  _476
REMARK  201  A    between atoms: _475  and  _478
REMARK  202  A    between atoms: _478  and  _479
REMARK  203  A    between atoms: _482  and  _484
REMARK  204  A    between atoms: _484  and  _485
REMARK  205  A    between atoms: _487  and  _489
REMARK  206  A    between atoms: _489  and  _490
REMARK  207  A    between atoms: _489  and  _492
REMARK  208  A    between atoms: _492  and  _493
REMARK  209  A    between atoms: _498  and  _499
REMARK  210  A    between atoms: _501  and  _503
REMARK  211  A    between atoms: _503  and  _504
REMARK  212  A    between atoms: _503  and  _506
REMARK  213  A    between atoms: _506  and  _507
REMARK  214  A    between atoms: _512  and  _513
REMARK  215  A    between atoms: _515  and  _517
REMARK  216  A    between atoms: _517  and  _518
REMARK  217  A    between atoms: _517  and  _520
REMARK  218  A    between atoms: _520  and  _521
REMARK  219  A    between atoms: _524  and  _526
REMARK  220  A    between atoms: _526  and  _527
REMARK  221  A    between atoms: _526  and  _529
REMARK  222  A    between atoms: _529  and  _530
REMARK  223  A    between atoms: _535  and  _537
REMARK  224  A    between atoms: _537  and  _538
REMARK  225  A    between atoms: _537  and  _540
REMARK  226  A    between atoms: _540  and  _541
REMARK  227  A    between atoms: _546  and  _547
REMARK                            x       y       z     vdW  Elec       q    Type
REMARK                         _______ _______ _______ _____ _____    ______ ____
ROOT
ATOM      1  O   HOH     1      38.300 267.558 153.823  0.00  0.00    +0.000 OA
ENDROOT
TORSDOF 0
