REMARK  Name = ../refined-set-2016/3ozt/3ozt_pocket.pdb
REMARK  211 active torsions:
REMARK  status: ('A' for Active; 'I' for Inactive)
REMARK    1  A    between atoms: _1  and  _3
REMARK    2  A    between atoms: _3  and  _4
REMARK    3  A    between atoms: _3  and  _6
REMARK    4  A    between atoms: _6  and  _7
REMARK    5  A    between atoms: _7  and  _8
REMARK    6  A    between atoms: _11  and  _13
REMARK    7  A    between atoms: _13  and  _14
REMARK    8  A    between atoms: _13  and  _16
REMARK    9  A    between atoms: _16  and  _17
REMARK   10  A    between atoms: _27  and  _29
REMARK   11  A    between atoms: _29  and  _30
REMARK   12  A    between atoms: _33  and  _35
REMARK   13  A    between atoms: _35  and  _36
REMARK   14  A    between atoms: _35  and  _38
REMARK   15  A    between atoms: _38  and  _39
REMARK   16  A    between atoms: _39  and  _40
REMARK   17  A    between atoms: _42  and  _44
REMARK   18  A    between atoms: _44  and  _45
REMARK   19  A    between atoms: _44  and  _47
REMARK   20  A    between atoms: _47  and  _48
REMARK   21  A    between atoms: _53  and  _55
REMARK   22  A    between atoms: _55  and  _56
REMARK   23  A    between atoms: _55  and  _58
REMARK   24  A    between atoms: _61  and  _63
REMARK   25  A    between atoms: _63  and  _64
REMARK   26  A    between atoms: _66  and  _68
REMARK   27  A    between atoms: _68  and  _69
REMARK   28  A    between atoms: _68  and  _71
REMARK   29  A    between atoms: _71  and  _72
REMARK   30  A    between atoms: _72  and  _73
REMARK   31  A    between atoms: _73  and  _74
REMARK   32  A    between atoms: _74  and  _75
REMARK   33  A    between atoms: _79  and  _81
REMARK   34  A    between atoms: _81  and  _82
REMARK   35  A    between atoms: _81  and  _84
REMARK   36  A    between atoms: _84  and  _85
REMARK   37  A    between atoms: _85  and  _86
REMARK   38  A    between atoms: _89  and  _91
REMARK   39  A    between atoms: _91  and  _92
REMARK   40  A    between atoms: _91  and  _94
REMARK   41  A    between atoms: _94  and  _95
REMARK   42  A    between atoms: _98  and  _100
REMARK   43  A    between atoms: _100  and  _101
REMARK   44  A    between atoms: _103  and  _105
REMARK   45  A    between atoms: _105  and  _106
REMARK   46  A    between atoms: _109  and  _111
REMARK   47  A    between atoms: _111  and  _112
REMARK   48  A    between atoms: _111  and  _114
REMARK   49  A    between atoms: _114  and  _115
REMARK   50  A    between atoms: _120  and  _121
REMARK   51  A    between atoms: _123  and  _125
REMARK   52  A    between atoms: _125  and  _126
REMARK   53  A    between atoms: _125  and  _128
REMARK   54  A    between atoms: _130  and  _132
REMARK   55  A    between atoms: _132  and  _133
REMARK   56  A    between atoms: _135  and  _137
REMARK   57  A    between atoms: _137  and  _138
REMARK   58  A    between atoms: _137  and  _140
REMARK   59  A    between atoms: _140  and  _141
REMARK   60  A    between atoms: _144  and  _146
REMARK   61  A    between atoms: _146  and  _147
REMARK   62  A    between atoms: _146  and  _149
REMARK   63  A    between atoms: _150  and  _151
REMARK   64  A    between atoms: _153  and  _155
REMARK   65  A    between atoms: _155  and  _156
REMARK   66  A    between atoms: _155  and  _158
REMARK   67  A    between atoms: _158  and  _159
REMARK   68  A    between atoms: _159  and  _160
REMARK   69  A    between atoms: _163  and  _165
REMARK   70  A    between atoms: _165  and  _166
REMARK   71  A    between atoms: _165  and  _168
REMARK   72  A    between atoms: _168  and  _169
REMARK   73  A    between atoms: _172  and  _174
REMARK   74  A    between atoms: _174  and  _175
REMARK   75  A    between atoms: _174  and  _177
REMARK   76  A    between atoms: _177  and  _178
REMARK   77  A    between atoms: _184  and  _185
REMARK   78  A    between atoms: _190  and  _192
REMARK   79  A    between atoms: _192  and  _193
REMARK   80  A    between atoms: _192  and  _195
REMARK   81  A    between atoms: _195  and  _196
REMARK   82  A    between atoms: _199  and  _201
REMARK   83  A    between atoms: _201  and  _202
REMARK   84  A    between atoms: _201  and  _204
REMARK   85  A    between atoms: _206  and  _208
REMARK   86  A    between atoms: _208  and  _209
REMARK   87  A    between atoms: _212  and  _214
REMARK   88  A    between atoms: _214  and  _215
REMARK   89  A    between atoms: _214  and  _217
REMARK   90  A    between atoms: _217  and  _218
REMARK   91  A    between atoms: _221  and  _223
REMARK   92  A    between atoms: _223  and  _224
REMARK   93  A    between atoms: _223  and  _226
REMARK   94  A    between atoms: _226  and  _227
REMARK   95  A    between atoms: _230  and  _232
REMARK   96  A    between atoms: _232  and  _233
REMARK   97  A    between atoms: _232  and  _235
REMARK   98  A    between atoms: _235  and  _236
REMARK   99  A    between atoms: _241  and  _243
REMARK  100  A    between atoms: _243  and  _244
REMARK  101  A    between atoms: _246  and  _248
REMARK  102  A    between atoms: _248  and  _249
REMARK  103  A    between atoms: _252  and  _254
REMARK  104  A    between atoms: _254  and  _255
REMARK  105  A    between atoms: _254  and  _257
REMARK  106  A    between atoms: _257  and  _258
REMARK  107  A    between atoms: _260  and  _262
REMARK  108  A    between atoms: _262  and  _263
REMARK  109  A    between atoms: _262  and  _265
REMARK  110  A    between atoms: _265  and  _266
REMARK  111  A    between atoms: _266  and  _267
REMARK  112  A    between atoms: _272  and  _274
REMARK  113  A    between atoms: _274  and  _275
REMARK  114  A    between atoms: _274  and  _277
REMARK  115  A    between atoms: _277  and  _278
REMARK  116  A    between atoms: _281  and  _283
REMARK  117  A    between atoms: _283  and  _284
REMARK  118  A    between atoms: _283  and  _286
REMARK  119  A    between atoms: _286  and  _287
REMARK  120  A    between atoms: _290  and  _292
REMARK  121  A    between atoms: _292  and  _293
REMARK  122  A    between atoms: _292  and  _295
REMARK  123  A    between atoms: _295  and  _296
REMARK  124  A    between atoms: _299  and  _301
REMARK  125  A    between atoms: _301  and  _302
REMARK  126  A    between atoms: _301  and  _304
REMARK  127  A    between atoms: _304  and  _305
REMARK  128  A    between atoms: _311  and  _313
REMARK  129  A    between atoms: _313  and  _314
REMARK  130  A    between atoms: _313  and  _316
REMARK  131  A    between atoms: _316  and  _317
REMARK  132  A    between atoms: _320  and  _322
REMARK  133  A    between atoms: _322  and  _323
REMARK  134  A    between atoms: _322  and  _325
REMARK  135  A    between atoms: _325  and  _326
REMARK  136  A    between atoms: _326  and  _327
REMARK  137  A    between atoms: _327  and  MG_517
REMARK  138  A    between atoms: _329  and  _331
REMARK  139  A    between atoms: _331  and  _332
REMARK  140  A    between atoms: _331  and  _334
REMARK  141  A    between atoms: _334  and  _335
REMARK  142  A    between atoms: _340  and  _342
REMARK  143  A    between atoms: _342  and  _343
REMARK  144  A    between atoms: _342  and  _345
REMARK  145  A    between atoms: _345  and  _346
REMARK  146  A    between atoms: _356  and  _358
REMARK  147  A    between atoms: _358  and  _359
REMARK  148  A    between atoms: _358  and  _361
REMARK  149  A    between atoms: _361  and  _362
REMARK  150  A    between atoms: _362  and  _363
REMARK  151  A    between atoms: _363  and  _364
REMARK  152  A    between atoms: _364  and  _365
REMARK  153  A    between atoms: _369  and  _371
REMARK  154  A    between atoms: _371  and  _372
REMARK  155  A    between atoms: _371  and  _374
REMARK  156  A    between atoms: _374  and  _375
REMARK  157  A    between atoms: _378  and  _380
REMARK  158  A    between atoms: _380  and  _381
REMARK  159  A    between atoms: _380  and  _383
REMARK  160  A    between atoms: _383  and  _384
REMARK  161  A    between atoms: _384  and  _385
REMARK  162  A    between atoms: _385  and  _386
REMARK  163  A    between atoms: _395  and  _397
REMARK  164  A    between atoms: _397  and  _398
REMARK  165  A    between atoms: _397  and  _400
REMARK  166  A    between atoms: _400  and  _401
REMARK  167  A    between atoms: _406  and  _407
REMARK  168  A    between atoms: _409  and  _411
REMARK  169  A    between atoms: _411  and  _412
REMARK  170  A    between atoms: _411  and  _414
REMARK  171  A    between atoms: _414  and  _415
REMARK  172  A    between atoms: _418  and  _420
REMARK  173  A    between atoms: _420  and  _421
REMARK  174  A    between atoms: _420  and  _423
REMARK  175  A    between atoms: _423  and  _424
REMARK  176  A    between atoms: _427  and  _429
REMARK  177  A    between atoms: _429  and  _430
REMARK  178  A    between atoms: _429  and  _432
REMARK  179  A    between atoms: _432  and  _433
REMARK  180  A    between atoms: _438  and  _440
REMARK  181  A    between atoms: _440  and  _441
REMARK  182  A    between atoms: _440  and  _443
REMARK  183  A    between atoms: _446  and  _448
REMARK  184  A    between atoms: _448  and  _449
REMARK  185  A    between atoms: _448  and  _451
REMARK  186  A    between atoms: _455  and  _456
REMARK  187  A    between atoms: _461  and  _463
REMARK  188  A    between atoms: _463  and  _464
REMARK  189  A    between atoms: _466  and  _468
REMARK  190  A    between atoms: _468  and  _469
REMARK  191  A    between atoms: _468  and  _471
REMARK  192  A    between atoms: _471  and  _472
REMARK  193  A    between atoms: _475  and  _477
REMARK  194  A    between atoms: _477  and  _478
REMARK  195  A    between atoms: _477  and  _480
REMARK  196  A    between atoms: _480  and  _481
REMARK  197  A    between atoms: _484  and  _486
REMARK  198  A    between atoms: _486  and  _487
REMARK  199  A    between atoms: _486  and  _489
REMARK  200  A    between atoms: _489  and  _490
REMARK  201  A    between atoms: _490  and  _491
REMARK  202  A    between atoms: _494  and  _496
REMARK  203  A    between atoms: _496  and  _497
REMARK  204  A    between atoms: _496  and  _499
REMARK  205  A    between atoms: _499  and  _500
REMARK  206  A    between atoms: _505  and  _506
REMARK  207  A    between atoms: _508  and  _510
REMARK  208  A    between atoms: _510  and  _511
REMARK  209  A    between atoms: _510  and  _513
REMARK  210  A    between atoms: _513  and  _514
REMARK  211  A    between atoms: _514  and  _515
REMARK                            x       y       z     vdW  Elec       q    Type
REMARK                         _______ _______ _______ _____ _____    ______ ____
ROOT
ATOM      1  CA  GLU A   1      41.281 -10.238 -19.203  0.00  0.00    +0.134 C 
ENDROOT
BRANCH   1   2
ATOM      2  N   GLU A   1      42.647 -10.434 -18.691  0.00  0.00    -0.239 NA
ATOM      3  H   GLU A   1      43.236  -9.596 -18.509  0.00  0.00    +0.142 HD
ENDBRANCH   1   2
BRANCH   1   4
ATOM      4  C   GLU A   1      41.143 -10.753 -20.641  0.00  0.00    +0.224 C 
ATOM      5  O   GLU A   1      40.139 -11.379 -21.028  0.00  0.00    -0.287 OA
ENDBRANCH   1   4
BRANCH   1   6
ATOM      6  CB  GLU A   1      40.849  -8.773 -19.071  0.00  0.00    +0.037 C 
BRANCH   6   7
ATOM      7  CG  GLU A   1      40.707  -8.233 -17.624  0.00  0.00    +0.116 C 
BRANCH   7   8
ATOM      8  CD  GLU A   1      42.039  -8.041 -16.825  0.00  0.00    +0.365 C 
ATOM      9  OE2 GLU A   1      42.043  -8.170 -15.571  0.00  0.00    -0.246 OA
ATOM     10  OE1 GLU A   1      43.086  -7.791 -17.483  0.00  0.00    -0.246 OA
ENDBRANCH   7   8
ENDBRANCH   6   7
ENDBRANCH   1   6
TORSDOF 5
REMARK  Name = ../refined-set-2016/3ozt/3ozt_pocket.pdb
REMARK  211 active torsions:
REMARK  status: ('A' for Active; 'I' for Inactive)
REMARK    1  A    between atoms: _1  and  _3
REMARK    2  A    between atoms: _3  and  _4
REMARK    3  A    between atoms: _3  and  _6
REMARK    4  A    between atoms: _6  and  _7
REMARK    5  A    between atoms: _7  and  _8
REMARK    6  A    between atoms: _11  and  _13
REMARK    7  A    between atoms: _13  and  _14
REMARK    8  A    between atoms: _13  and  _16
REMARK    9  A    between atoms: _16  and  _17
REMARK   10  A    between atoms: _27  and  _29
REMARK   11  A    between atoms: _29  and  _30
REMARK   12  A    between atoms: _33  and  _35
REMARK   13  A    between atoms: _35  and  _36
REMARK   14  A    between atoms: _35  and  _38
REMARK   15  A    between atoms: _38  and  _39
REMARK   16  A    between atoms: _39  and  _40
REMARK   17  A    between atoms: _42  and  _44
REMARK   18  A    between atoms: _44  and  _45
REMARK   19  A    between atoms: _44  and  _47
REMARK   20  A    between atoms: _47  and  _48
REMARK   21  A    between atoms: _53  and  _55
REMARK   22  A    between atoms: _55  and  _56
REMARK   23  A    between atoms: _55  and  _58
REMARK   24  A    between atoms: _61  and  _63
REMARK   25  A    between atoms: _63  and  _64
REMARK   26  A    between atoms: _66  and  _68
REMARK   27  A    between atoms: _68  and  _69
REMARK   28  A    between atoms: _68  and  _71
REMARK   29  A    between atoms: _71  and  _72
REMARK   30  A    between atoms: _72  and  _73
REMARK   31  A    between atoms: _73  and  _74
REMARK   32  A    between atoms: _74  and  _75
REMARK   33  A    between atoms: _79  and  _81
REMARK   34  A    between atoms: _81  and  _82
REMARK   35  A    between atoms: _81  and  _84
REMARK   36  A    between atoms: _84  and  _85
REMARK   37  A    between atoms: _85  and  _86
REMARK   38  A    between atoms: _89  and  _91
REMARK   39  A    between atoms: _91  and  _92
REMARK   40  A    between atoms: _91  and  _94
REMARK   41  A    between atoms: _94  and  _95
REMARK   42  A    between atoms: _98  and  _100
REMARK   43  A    between atoms: _100  and  _101
REMARK   44  A    between atoms: _103  and  _105
REMARK   45  A    between atoms: _105  and  _106
REMARK   46  A    between atoms: _109  and  _111
REMARK   47  A    between atoms: _111  and  _112
REMARK   48  A    between atoms: _111  and  _114
REMARK   49  A    between atoms: _114  and  _115
REMARK   50  A    between atoms: _120  and  _121
REMARK   51  A    between atoms: _123  and  _125
REMARK   52  A    between atoms: _125  and  _126
REMARK   53  A    between atoms: _125  and  _128
REMARK   54  A    between atoms: _130  and  _132
REMARK   55  A    between atoms: _132  and  _133
REMARK   56  A    between atoms: _135  and  _137
REMARK   57  A    between atoms: _137  and  _138
REMARK   58  A    between atoms: _137  and  _140
REMARK   59  A    between atoms: _140  and  _141
REMARK   60  A    between atoms: _144  and  _146
REMARK   61  A    between atoms: _146  and  _147
REMARK   62  A    between atoms: _146  and  _149
REMARK   63  A    between atoms: _150  and  _151
REMARK   64  A    between atoms: _153  and  _155
REMARK   65  A    between atoms: _155  and  _156
REMARK   66  A    between atoms: _155  and  _158
REMARK   67  A    between atoms: _158  and  _159
REMARK   68  A    between atoms: _159  and  _160
REMARK   69  A    between atoms: _163  and  _165
REMARK   70  A    between atoms: _165  and  _166
REMARK   71  A    between atoms: _165  and  _168
REMARK   72  A    between atoms: _168  and  _169
REMARK   73  A    between atoms: _172  and  _174
REMARK   74  A    between atoms: _174  and  _175
REMARK   75  A    between atoms: _174  and  _177
REMARK   76  A    between atoms: _177  and  _178
REMARK   77  A    between atoms: _184  and  _185
REMARK   78  A    between atoms: _190  and  _192
REMARK   79  A    between atoms: _192  and  _193
REMARK   80  A    between atoms: _192  and  _195
REMARK   81  A    between atoms: _195  and  _196
REMARK   82  A    between atoms: _199  and  _201
REMARK   83  A    between atoms: _201  and  _202
REMARK   84  A    between atoms: _201  and  _204
REMARK   85  A    between atoms: _206  and  _208
REMARK   86  A    between atoms: _208  and  _209
REMARK   87  A    between atoms: _212  and  _214
REMARK   88  A    between atoms: _214  and  _215
REMARK   89  A    between atoms: _214  and  _217
REMARK   90  A    between atoms: _217  and  _218
REMARK   91  A    between atoms: _221  and  _223
REMARK   92  A    between atoms: _223  and  _224
REMARK   93  A    between atoms: _223  and  _226
REMARK   94  A    between atoms: _226  and  _227
REMARK   95  A    between atoms: _230  and  _232
REMARK   96  A    between atoms: _232  and  _233
REMARK   97  A    between atoms: _232  and  _235
REMARK   98  A    between atoms: _235  and  _236
REMARK   99  A    between atoms: _241  and  _243
REMARK  100  A    between atoms: _243  and  _244
REMARK  101  A    between atoms: _246  and  _248
REMARK  102  A    between atoms: _248  and  _249
REMARK  103  A    between atoms: _252  and  _254
REMARK  104  A    between atoms: _254  and  _255
REMARK  105  A    between atoms: _254  and  _257
REMARK  106  A    between atoms: _257  and  _258
REMARK  107  A    between atoms: _260  and  _262
REMARK  108  A    between atoms: _262  and  _263
REMARK  109  A    between atoms: _262  and  _265
REMARK  110  A    between atoms: _265  and  _266
REMARK  111  A    between atoms: _266  and  _267
REMARK  112  A    between atoms: _272  and  _274
REMARK  113  A    between atoms: _274  and  _275
REMARK  114  A    between atoms: _274  and  _277
REMARK  115  A    between atoms: _277  and  _278
REMARK  116  A    between atoms: _281  and  _283
REMARK  117  A    between atoms: _283  and  _284
REMARK  118  A    between atoms: _283  and  _286
REMARK  119  A    between atoms: _286  and  _287
REMARK  120  A    between atoms: _290  and  _292
REMARK  121  A    between atoms: _292  and  _293
REMARK  122  A    between atoms: _292  and  _295
REMARK  123  A    between atoms: _295  and  _296
REMARK  124  A    between atoms: _299  and  _301
REMARK  125  A    between atoms: _301  and  _302
REMARK  126  A    between atoms: _301  and  _304
REMARK  127  A    between atoms: _304  and  _305
REMARK  128  A    between atoms: _311  and  _313
REMARK  129  A    between atoms: _313  and  _314
REMARK  130  A    between atoms: _313  and  _316
REMARK  131  A    between atoms: _316  and  _317
REMARK  132  A    between atoms: _320  and  _322
REMARK  133  A    between atoms: _322  and  _323
REMARK  134  A    between atoms: _322  and  _325
REMARK  135  A    between atoms: _325  and  _326
REMARK  136  A    between atoms: _326  and  _327
REMARK  137  A    between atoms: _327  and  MG_517
REMARK  138  A    between atoms: _329  and  _331
REMARK  139  A    between atoms: _331  and  _332
REMARK  140  A    between atoms: _331  and  _334
REMARK  141  A    between atoms: _334  and  _335
REMARK  142  A    between atoms: _340  and  _342
REMARK  143  A    between atoms: _342  and  _343
REMARK  144  A    between atoms: _342  and  _345
REMARK  145  A    between atoms: _345  and  _346
REMARK  146  A    between atoms: _356  and  _358
REMARK  147  A    between atoms: _358  and  _359
REMARK  148  A    between atoms: _358  and  _361
REMARK  149  A    between atoms: _361  and  _362
REMARK  150  A    between atoms: _362  and  _363
REMARK  151  A    between atoms: _363  and  _364
REMARK  152  A    between atoms: _364  and  _365
REMARK  153  A    between atoms: _369  and  _371
REMARK  154  A    between atoms: _371  and  _372
REMARK  155  A    between atoms: _371  and  _374
REMARK  156  A    between atoms: _374  and  _375
REMARK  157  A    between atoms: _378  and  _380
REMARK  158  A    between atoms: _380  and  _381
REMARK  159  A    between atoms: _380  and  _383
REMARK  160  A    between atoms: _383  and  _384
REMARK  161  A    between atoms: _384  and  _385
REMARK  162  A    between atoms: _385  and  _386
REMARK  163  A    between atoms: _395  and  _397
REMARK  164  A    between atoms: _397  and  _398
REMARK  165  A    between atoms: _397  and  _400
REMARK  166  A    between atoms: _400  and  _401
REMARK  167  A    between atoms: _406  and  _407
REMARK  168  A    between atoms: _409  and  _411
REMARK  169  A    between atoms: _411  and  _412
REMARK  170  A    between atoms: _411  and  _414
REMARK  171  A    between atoms: _414  and  _415
REMARK  172  A    between atoms: _418  and  _420
REMARK  173  A    between atoms: _420  and  _421
REMARK  174  A    between atoms: _420  and  _423
REMARK  175  A    between atoms: _423  and  _424
REMARK  176  A    between atoms: _427  and  _429
REMARK  177  A    between atoms: _429  and  _430
REMARK  178  A    between atoms: _429  and  _432
REMARK  179  A    between atoms: _432  and  _433
REMARK  180  A    between atoms: _438  and  _440
REMARK  181  A    between atoms: _440  and  _441
REMARK  182  A    between atoms: _440  and  _443
REMARK  183  A    between atoms: _446  and  _448
REMARK  184  A    between atoms: _448  and  _449
REMARK  185  A    between atoms: _448  and  _451
REMARK  186  A    between atoms: _455  and  _456
REMARK  187  A    between atoms: _461  and  _463
REMARK  188  A    between atoms: _463  and  _464
REMARK  189  A    between atoms: _466  and  _468
REMARK  190  A    between atoms: _468  and  _469
REMARK  191  A    between atoms: _468  and  _471
REMARK  192  A    between atoms: _471  and  _472
REMARK  193  A    between atoms: _475  and  _477
REMARK  194  A    between atoms: _477  and  _478
REMARK  195  A    between atoms: _477  and  _480
REMARK  196  A    between atoms: _480  and  _481
REMARK  197  A    between atoms: _484  and  _486
REMARK  198  A    between atoms: _486  and  _487
REMARK  199  A    between atoms: _486  and  _489
REMARK  200  A    between atoms: _489  and  _490
REMARK  201  A    between atoms: _490  and  _491
REMARK  202  A    between atoms: _494  and  _496
REMARK  203  A    between atoms: _496  and  _497
REMARK  204  A    between atoms: _496  and  _499
REMARK  205  A    between atoms: _499  and  _500
REMARK  206  A    between atoms: _505  and  _506
REMARK  207  A    between atoms: _508  and  _510
REMARK  208  A    between atoms: _510  and  _511
REMARK  209  A    between atoms: _510  and  _513
REMARK  210  A    between atoms: _513  and  _514
REMARK  211  A    between atoms: _514  and  _515
REMARK                            x       y       z     vdW  Elec       q    Type
REMARK                         _______ _______ _______ _____ _____    ______ ____
ROOT
ATOM      1  CA  MET A   3      37.232 -10.088  -9.581  0.00  0.00    +0.149 C 
ENDROOT
BRANCH   1   4
ATOM      2  C   ALA A   2      38.547 -12.042 -10.398  0.00  0.00    +0.241 C 
ATOM      3  O   ALA A   2      37.792 -12.896  -9.875  0.00  0.00    -0.273 OA
ATOM      4  N   MET A   3      38.327 -10.728 -10.377  0.00  0.00    -0.297 N 
ATOM      5  H   MET A   3      38.948 -10.115 -10.943  0.00  0.00    +0.150 HD
BRANCH   2   6
ATOM      6  CA  ALA A   2      39.840 -12.474 -11.123  0.00  0.00    +0.149 C 
ATOM      7  CB  ALA A   2      39.645 -12.503 -12.651  0.00  0.00    +0.031 C 
BRANCH   6   9
ATOM      8  C   TRP A   1      41.557 -14.114 -10.660  0.00  0.00    +0.239 C 
ATOM      9  N   ALA A   2      40.261 -13.752 -10.604  0.00  0.00    -0.297 N 
ATOM     10  H   ALA A   2      39.561 -14.397 -10.185  0.00  0.00    +0.150 HD
ATOM     11  O   TRP A   1      42.377 -13.406 -11.217  0.00  0.00    -0.274 OA
BRANCH   8  12
ATOM     12  CA  TRP A   1      41.946 -15.361  -9.888  0.00  0.00    +0.149 C 
BRANCH  12  13
ATOM     13  N   TRP A   1      42.916 -16.196 -10.633  0.00  0.00    -0.238 NA
ATOM     14  H   TRP A   1      43.778 -16.525 -10.153  0.00  0.00    +0.142 HD
ENDBRANCH  12  13
BRANCH  12  15
ATOM     15  CB  TRP A   1      42.483 -14.948  -8.514  0.00  0.00    +0.054 C 
BRANCH  15  16
ATOM     16  CG  TRP A   1      41.342 -14.397  -7.622  0.00  0.00    -0.002 A 
ATOM     17  CD1 TRP A   1      40.505 -15.130  -6.825  0.00  0.00    +0.068 A 
ATOM     18  NE1 TRP A   1      39.588 -14.303  -6.181  0.00  0.00    -0.352 N 
ATOM     19  HE1 TRP A   1      38.868 -14.607  -5.495  0.00  0.00    +0.166 HD
ATOM     20  CE2 TRP A   1      39.800 -13.020  -6.609  0.00  0.00    +0.056 A 
ATOM     21  CZ2 TRP A   1      39.166 -11.839  -6.249  0.00  0.00    +0.017 A 
ATOM     22  CH2 TRP A   1      39.617 -10.663  -6.807  0.00  0.00    +0.001 A 
ATOM     23  CZ3 TRP A   1      40.694 -10.635  -7.682  0.00  0.00    +0.000 A 
ATOM     24  CE3 TRP A   1      41.362 -11.851  -8.046  0.00  0.00    +0.001 A 
ATOM     25  CD2 TRP A   1      40.922 -13.042  -7.498  0.00  0.00    +0.013 A 
ENDBRANCH  15  16
ENDBRANCH  12  15
ENDBRANCH   8  12
ENDBRANCH   6   9
ENDBRANCH   2   6
ENDBRANCH   1   4
BRANCH   1  26
ATOM     26  C   MET A   3      35.852 -10.173 -10.211  0.00  0.00    +0.241 C 
ATOM     27  O   MET A   3      35.103  -9.194 -10.220  0.00  0.00    -0.273 OA
ATOM     28  N   ASN A   4      35.533 -11.295 -10.810  0.00  0.00    -0.297 N 
ATOM     29  H   ASN A   4      36.266 -12.012 -10.981  0.00  0.00    +0.150 HD
BRANCH  28  30
ATOM     30  CA  ASN A   4      34.139 -11.554 -11.247  0.00  0.00    +0.158 C 
BRANCH  30  31
ATOM     31  C   ASN A   4      33.326 -11.906  -9.993  0.00  0.00    +0.241 C 
ATOM     32  O   ASN A   4      33.854 -12.517  -9.064  0.00  0.00    -0.273 OA
ATOM     33  N   VAL A   5      32.020 -11.626 -10.008  0.00  0.00    -0.297 N 
ATOM     34  H   VAL A   5      31.570 -11.196 -10.841  0.00  0.00    +0.150 HD
BRANCH  33  35
ATOM     35  CA  VAL A   5      31.241 -11.949  -8.800  0.00  0.00    +0.149 C 
BRANCH  35  36
ATOM     36  C   VAL A   5      31.210 -13.430  -8.446  0.00  0.00    +0.241 C 
ATOM     37  O   VAL A   5      31.207 -13.780  -7.289  0.00  0.00    -0.273 OA
ATOM     38  N   GLY A   6      31.315 -14.316  -9.458  0.00  0.00    -0.296 N 
ATOM     39  H   GLY A   6      31.322 -13.984 -10.444  0.00  0.00    +0.150 HD
BRANCH  38  40
ATOM     40  CA  GLY A   6      31.416 -15.702  -9.173  0.00  0.00    +0.163 C 
BRANCH  40  41
ATOM     41  C   GLY A   6      30.047 -16.367  -9.042  0.00  0.00    +0.229 C 
ATOM     42  O   GLY A   6      29.004 -15.705  -9.044  0.00  0.00    -0.286 OA
ENDBRANCH  40  41
ENDBRANCH  38  40
ENDBRANCH  35  36
BRANCH  35  43
ATOM     43  CB  VAL A   5      29.848 -11.348  -8.835  0.00  0.00    +0.027 C 
ATOM     44  CG2 VAL A   5      29.245 -11.370  -7.453  0.00  0.00    +0.002 C 
ATOM     45  CG1 VAL A   5      28.882 -12.000  -9.907  0.00  0.00    +0.002 C 
ENDBRANCH  35  43
ENDBRANCH  33  35
ENDBRANCH  30  31
BRANCH  30  46
ATOM     46  CB  ASN A   4      34.071 -12.779 -12.185  0.00  0.00    +0.114 C 
BRANCH  46  47
ATOM     47  CG  ASN A   4      35.033 -12.690 -13.338  0.00  0.00    +0.222 C 
ATOM     48  OD1 ASN A   4      35.882 -13.612 -13.460  0.00  0.00    -0.275 OA
ATOM     49  ND2 ASN A   4      34.968 -11.617 -14.133  0.00  0.00    -0.329 N 
ATOM     50 HD21 ASN A   4      34.238 -10.894 -13.972  0.00  0.00    +0.145 HD
ATOM     51 HD22 ASN A   4      35.647 -11.505 -14.912  0.00  0.00    +0.145 HD
ENDBRANCH  46  47
ENDBRANCH  30  46
ENDBRANCH  28  30
ENDBRANCH   1  26
BRANCH   1  52
ATOM     52  CB  MET A   3      37.573  -8.613  -9.340  0.00  0.00    +0.041 C 
BRANCH  52  53
ATOM     53  CG  MET A   3      37.595  -7.700 -10.592  0.00  0.00    +0.060 C 
BRANCH  53  54
ATOM     54  SD  MET A   3      38.065  -6.049 -10.086  0.00  0.00    -0.139 S 
ATOM     55  CE  MET A   3      39.521  -6.413  -9.065  0.00  0.00    +0.069 C 
ENDBRANCH  53  54
ENDBRANCH  52  53
ENDBRANCH   1  52
TORSDOF 20
REMARK  Name = ../refined-set-2016/3ozt/3ozt_pocket.pdb
REMARK  211 active torsions:
REMARK  status: ('A' for Active; 'I' for Inactive)
REMARK    1  A    between atoms: _1  and  _3
REMARK    2  A    between atoms: _3  and  _4
REMARK    3  A    between atoms: _3  and  _6
REMARK    4  A    between atoms: _6  and  _7
REMARK    5  A    between atoms: _7  and  _8
REMARK    6  A    between atoms: _11  and  _13
REMARK    7  A    between atoms: _13  and  _14
REMARK    8  A    between atoms: _13  and  _16
REMARK    9  A    between atoms: _16  and  _17
REMARK   10  A    between atoms: _27  and  _29
REMARK   11  A    between atoms: _29  and  _30
REMARK   12  A    between atoms: _33  and  _35
REMARK   13  A    between atoms: _35  and  _36
REMARK   14  A    between atoms: _35  and  _38
REMARK   15  A    between atoms: _38  and  _39
REMARK   16  A    between atoms: _39  and  _40
REMARK   17  A    between atoms: _42  and  _44
REMARK   18  A    between atoms: _44  and  _45
REMARK   19  A    between atoms: _44  and  _47
REMARK   20  A    between atoms: _47  and  _48
REMARK   21  A    between atoms: _53  and  _55
REMARK   22  A    between atoms: _55  and  _56
REMARK   23  A    between atoms: _55  and  _58
REMARK   24  A    between atoms: _61  and  _63
REMARK   25  A    between atoms: _63  and  _64
REMARK   26  A    between atoms: _66  and  _68
REMARK   27  A    between atoms: _68  and  _69
REMARK   28  A    between atoms: _68  and  _71
REMARK   29  A    between atoms: _71  and  _72
REMARK   30  A    between atoms: _72  and  _73
REMARK   31  A    between atoms: _73  and  _74
REMARK   32  A    between atoms: _74  and  _75
REMARK   33  A    between atoms: _79  and  _81
REMARK   34  A    between atoms: _81  and  _82
REMARK   35  A    between atoms: _81  and  _84
REMARK   36  A    between atoms: _84  and  _85
REMARK   37  A    between atoms: _85  and  _86
REMARK   38  A    between atoms: _89  and  _91
REMARK   39  A    between atoms: _91  and  _92
REMARK   40  A    between atoms: _91  and  _94
REMARK   41  A    between atoms: _94  and  _95
REMARK   42  A    between atoms: _98  and  _100
REMARK   43  A    between atoms: _100  and  _101
REMARK   44  A    between atoms: _103  and  _105
REMARK   45  A    between atoms: _105  and  _106
REMARK   46  A    between atoms: _109  and  _111
REMARK   47  A    between atoms: _111  and  _112
REMARK   48  A    between atoms: _111  and  _114
REMARK   49  A    between atoms: _114  and  _115
REMARK   50  A    between atoms: _120  and  _121
REMARK   51  A    between atoms: _123  and  _125
REMARK   52  A    between atoms: _125  and  _126
REMARK   53  A    between atoms: _125  and  _128
REMARK   54  A    between atoms: _130  and  _132
REMARK   55  A    between atoms: _132  and  _133
REMARK   56  A    between atoms: _135  and  _137
REMARK   57  A    between atoms: _137  and  _138
REMARK   58  A    between atoms: _137  and  _140
REMARK   59  A    between atoms: _140  and  _141
REMARK   60  A    between atoms: _144  and  _146
REMARK   61  A    between atoms: _146  and  _147
REMARK   62  A    between atoms: _146  and  _149
REMARK   63  A    between atoms: _150  and  _151
REMARK   64  A    between atoms: _153  and  _155
REMARK   65  A    between atoms: _155  and  _156
REMARK   66  A    between atoms: _155  and  _158
REMARK   67  A    between atoms: _158  and  _159
REMARK   68  A    between atoms: _159  and  _160
REMARK   69  A    between atoms: _163  and  _165
REMARK   70  A    between atoms: _165  and  _166
REMARK   71  A    between atoms: _165  and  _168
REMARK   72  A    between atoms: _168  and  _169
REMARK   73  A    between atoms: _172  and  _174
REMARK   74  A    between atoms: _174  and  _175
REMARK   75  A    between atoms: _174  and  _177
REMARK   76  A    between atoms: _177  and  _178
REMARK   77  A    between atoms: _184  and  _185
REMARK   78  A    between atoms: _190  and  _192
REMARK   79  A    between atoms: _192  and  _193
REMARK   80  A    between atoms: _192  and  _195
REMARK   81  A    between atoms: _195  and  _196
REMARK   82  A    between atoms: _199  and  _201
REMARK   83  A    between atoms: _201  and  _202
REMARK   84  A    between atoms: _201  and  _204
REMARK   85  A    between atoms: _206  and  _208
REMARK   86  A    between atoms: _208  and  _209
REMARK   87  A    between atoms: _212  and  _214
REMARK   88  A    between atoms: _214  and  _215
REMARK   89  A    between atoms: _214  and  _217
REMARK   90  A    between atoms: _217  and  _218
REMARK   91  A    between atoms: _221  and  _223
REMARK   92  A    between atoms: _223  and  _224
REMARK   93  A    between atoms: _223  and  _226
REMARK   94  A    between atoms: _226  and  _227
REMARK   95  A    between atoms: _230  and  _232
REMARK   96  A    between atoms: _232  and  _233
REMARK   97  A    between atoms: _232  and  _235
REMARK   98  A    between atoms: _235  and  _236
REMARK   99  A    between atoms: _241  and  _243
REMARK  100  A    between atoms: _243  and  _244
REMARK  101  A    between atoms: _246  and  _248
REMARK  102  A    between atoms: _248  and  _249
REMARK  103  A    between atoms: _252  and  _254
REMARK  104  A    between atoms: _254  and  _255
REMARK  105  A    between atoms: _254  and  _257
REMARK  106  A    between atoms: _257  and  _258
REMARK  107  A    between atoms: _260  and  _262
REMARK  108  A    between atoms: _262  and  _263
REMARK  109  A    between atoms: _262  and  _265
REMARK  110  A    between atoms: _265  and  _266
REMARK  111  A    between atoms: _266  and  _267
REMARK  112  A    between atoms: _272  and  _274
REMARK  113  A    between atoms: _274  and  _275
REMARK  114  A    between atoms: _274  and  _277
REMARK  115  A    between atoms: _277  and  _278
REMARK  116  A    between atoms: _281  and  _283
REMARK  117  A    between atoms: _283  and  _284
REMARK  118  A    between atoms: _283  and  _286
REMARK  119  A    between atoms: _286  and  _287
REMARK  120  A    between atoms: _290  and  _292
REMARK  121  A    between atoms: _292  and  _293
REMARK  122  A    between atoms: _292  and  _295
REMARK  123  A    between atoms: _295  and  _296
REMARK  124  A    between atoms: _299  and  _301
REMARK  125  A    between atoms: _301  and  _302
REMARK  126  A    between atoms: _301  and  _304
REMARK  127  A    between atoms: _304  and  _305
REMARK  128  A    between atoms: _311  and  _313
REMARK  129  A    between atoms: _313  and  _314
REMARK  130  A    between atoms: _313  and  _316
REMARK  131  A    between atoms: _316  and  _317
REMARK  132  A    between atoms: _320  and  _322
REMARK  133  A    between atoms: _322  and  _323
REMARK  134  A    between atoms: _322  and  _325
REMARK  135  A    between atoms: _325  and  _326
REMARK  136  A    between atoms: _326  and  _327
REMARK  137  A    between atoms: _327  and  MG_517
REMARK  138  A    between atoms: _329  and  _331
REMARK  139  A    between atoms: _331  and  _332
REMARK  140  A    between atoms: _331  and  _334
REMARK  141  A    between atoms: _334  and  _335
REMARK  142  A    between atoms: _340  and  _342
REMARK  143  A    between atoms: _342  and  _343
REMARK  144  A    between atoms: _342  and  _345
REMARK  145  A    between atoms: _345  and  _346
REMARK  146  A    between atoms: _356  and  _358
REMARK  147  A    between atoms: _358  and  _359
REMARK  148  A    between atoms: _358  and  _361
REMARK  149  A    between atoms: _361  and  _362
REMARK  150  A    between atoms: _362  and  _363
REMARK  151  A    between atoms: _363  and  _364
REMARK  152  A    between atoms: _364  and  _365
REMARK  153  A    between atoms: _369  and  _371
REMARK  154  A    between atoms: _371  and  _372
REMARK  155  A    between atoms: _371  and  _374
REMARK  156  A    between atoms: _374  and  _375
REMARK  157  A    between atoms: _378  and  _380
REMARK  158  A    between atoms: _380  and  _381
REMARK  159  A    between atoms: _380  and  _383
REMARK  160  A    between atoms: _383  and  _384
REMARK  161  A    between atoms: _384  and  _385
REMARK  162  A    between atoms: _385  and  _386
REMARK  163  A    between atoms: _395  and  _397
REMARK  164  A    between atoms: _397  and  _398
REMARK  165  A    between atoms: _397  and  _400
REMARK  166  A    between atoms: _400  and  _401
REMARK  167  A    between atoms: _406  and  _407
REMARK  168  A    between atoms: _409  and  _411
REMARK  169  A    between atoms: _411  and  _412
REMARK  170  A    between atoms: _411  and  _414
REMARK  171  A    between atoms: _414  and  _415
REMARK  172  A    between atoms: _418  and  _420
REMARK  173  A    between atoms: _420  and  _421
REMARK  174  A    between atoms: _420  and  _423
REMARK  175  A    between atoms: _423  and  _424
REMARK  176  A    between atoms: _427  and  _429
REMARK  177  A    between atoms: _429  and  _430
REMARK  178  A    between atoms: _429  and  _432
REMARK  179  A    between atoms: _432  and  _433
REMARK  180  A    between atoms: _438  and  _440
REMARK  181  A    between atoms: _440  and  _441
REMARK  182  A    between atoms: _440  and  _443
REMARK  183  A    between atoms: _446  and  _448
REMARK  184  A    between atoms: _448  and  _449
REMARK  185  A    between atoms: _448  and  _451
REMARK  186  A    between atoms: _455  and  _456
REMARK  187  A    between atoms: _461  and  _463
REMARK  188  A    between atoms: _463  and  _464
REMARK  189  A    between atoms: _466  and  _468
REMARK  190  A    between atoms: _468  and  _469
REMARK  191  A    between atoms: _468  and  _471
REMARK  192  A    between atoms: _471  and  _472
REMARK  193  A    between atoms: _475  and  _477
REMARK  194  A    between atoms: _477  and  _478
REMARK  195  A    between atoms: _477  and  _480
REMARK  196  A    between atoms: _480  and  _481
REMARK  197  A    between atoms: _484  and  _486
REMARK  198  A    between atoms: _486  and  _487
REMARK  199  A    between atoms: _486  and  _489
REMARK  200  A    between atoms: _489  and  _490
REMARK  201  A    between atoms: _490  and  _491
REMARK  202  A    between atoms: _494  and  _496
REMARK  203  A    between atoms: _496  and  _497
REMARK  204  A    between atoms: _496  and  _499
REMARK  205  A    between atoms: _499  and  _500
REMARK  206  A    between atoms: _505  and  _506
REMARK  207  A    between atoms: _508  and  _510
REMARK  208  A    between atoms: _510  and  _511
REMARK  209  A    between atoms: _510  and  _513
REMARK  210  A    between atoms: _513  and  _514
REMARK  211  A    between atoms: _514  and  _515
REMARK                            x       y       z     vdW  Elec       q    Type
REMARK                         _______ _______ _______ _____ _____    ______ ____
ROOT
ATOM      1  CG  LYS A   1      28.571 -13.484  -3.624  0.00  0.00    -0.000 C 
ENDROOT
BRANCH   1   2
ATOM      2  CB  LYS A   1      27.990 -13.494  -5.038  0.00  0.00    +0.025 C 
BRANCH   2   3
ATOM      3  CA  LYS A   1      27.007 -14.703  -5.241  0.00  0.00    +0.133 C 
BRANCH   3   4
ATOM      4  N   LYS A   1      27.765 -15.955  -5.239  0.00  0.00    -0.239 NA
ATOM      5  H   LYS A   1      28.803 -15.933  -5.300  0.00  0.00    +0.142 HD
ENDBRANCH   3   4
BRANCH   3   6
ATOM      6  C   LYS A   1      26.132 -14.526  -6.473  0.00  0.00    +0.224 C 
ATOM      7  O   LYS A   1      25.064 -13.908  -6.452  0.00  0.00    -0.287 OA
ENDBRANCH   3   6
ENDBRANCH   2   3
ENDBRANCH   1   2
BRANCH   1   8
ATOM      8  CD  LYS A   1      29.495 -12.258  -3.378  0.00  0.00    -0.024 C 
BRANCH   8   9
ATOM      9  CE  LYS A   1      30.830 -12.376  -4.043  0.00  0.00    -0.086 C 
BRANCH   9  10
ATOM     10  NZ  LYS A   1      31.721 -11.083  -3.973  0.00  0.00    +0.380 N 
ATOM     11  HZ1 LYS A   1      31.903 -10.842  -2.978  0.00  0.00    -0.089 HD
ATOM     12  HZ2 LYS A   1      31.224 -10.296  -4.436  0.00  0.00    -0.089 HD
ATOM     13  HZ3 LYS A   1      32.624 -11.259  -4.459  0.00  0.00    -0.089 HD
ENDBRANCH   9  10
ENDBRANCH   8   9
ENDBRANCH   1   8
TORSDOF 7
REMARK  Name = ../refined-set-2016/3ozt/3ozt_pocket.pdb
REMARK  211 active torsions:
REMARK  status: ('A' for Active; 'I' for Inactive)
REMARK    1  A    between atoms: _1  and  _3
REMARK    2  A    between atoms: _3  and  _4
REMARK    3  A    between atoms: _3  and  _6
REMARK    4  A    between atoms: _6  and  _7
REMARK    5  A    between atoms: _7  and  _8
REMARK    6  A    between atoms: _11  and  _13
REMARK    7  A    between atoms: _13  and  _14
REMARK    8  A    between atoms: _13  and  _16
REMARK    9  A    between atoms: _16  and  _17
REMARK   10  A    between atoms: _27  and  _29
REMARK   11  A    between atoms: _29  and  _30
REMARK   12  A    between atoms: _33  and  _35
REMARK   13  A    between atoms: _35  and  _36
REMARK   14  A    between atoms: _35  and  _38
REMARK   15  A    between atoms: _38  and  _39
REMARK   16  A    between atoms: _39  and  _40
REMARK   17  A    between atoms: _42  and  _44
REMARK   18  A    between atoms: _44  and  _45
REMARK   19  A    between atoms: _44  and  _47
REMARK   20  A    between atoms: _47  and  _48
REMARK   21  A    between atoms: _53  and  _55
REMARK   22  A    between atoms: _55  and  _56
REMARK   23  A    between atoms: _55  and  _58
REMARK   24  A    between atoms: _61  and  _63
REMARK   25  A    between atoms: _63  and  _64
REMARK   26  A    between atoms: _66  and  _68
REMARK   27  A    between atoms: _68  and  _69
REMARK   28  A    between atoms: _68  and  _71
REMARK   29  A    between atoms: _71  and  _72
REMARK   30  A    between atoms: _72  and  _73
REMARK   31  A    between atoms: _73  and  _74
REMARK   32  A    between atoms: _74  and  _75
REMARK   33  A    between atoms: _79  and  _81
REMARK   34  A    between atoms: _81  and  _82
REMARK   35  A    between atoms: _81  and  _84
REMARK   36  A    between atoms: _84  and  _85
REMARK   37  A    between atoms: _85  and  _86
REMARK   38  A    between atoms: _89  and  _91
REMARK   39  A    between atoms: _91  and  _92
REMARK   40  A    between atoms: _91  and  _94
REMARK   41  A    between atoms: _94  and  _95
REMARK   42  A    between atoms: _98  and  _100
REMARK   43  A    between atoms: _100  and  _101
REMARK   44  A    between atoms: _103  and  _105
REMARK   45  A    between atoms: _105  and  _106
REMARK   46  A    between atoms: _109  and  _111
REMARK   47  A    between atoms: _111  and  _112
REMARK   48  A    between atoms: _111  and  _114
REMARK   49  A    between atoms: _114  and  _115
REMARK   50  A    between atoms: _120  and  _121
REMARK   51  A    between atoms: _123  and  _125
REMARK   52  A    between atoms: _125  and  _126
REMARK   53  A    between atoms: _125  and  _128
REMARK   54  A    between atoms: _130  and  _132
REMARK   55  A    between atoms: _132  and  _133
REMARK   56  A    between atoms: _135  and  _137
REMARK   57  A    between atoms: _137  and  _138
REMARK   58  A    between atoms: _137  and  _140
REMARK   59  A    between atoms: _140  and  _141
REMARK   60  A    between atoms: _144  and  _146
REMARK   61  A    between atoms: _146  and  _147
REMARK   62  A    between atoms: _146  and  _149
REMARK   63  A    between atoms: _150  and  _151
REMARK   64  A    between atoms: _153  and  _155
REMARK   65  A    between atoms: _155  and  _156
REMARK   66  A    between atoms: _155  and  _158
REMARK   67  A    between atoms: _158  and  _159
REMARK   68  A    between atoms: _159  and  _160
REMARK   69  A    between atoms: _163  and  _165
REMARK   70  A    between atoms: _165  and  _166
REMARK   71  A    between atoms: _165  and  _168
REMARK   72  A    between atoms: _168  and  _169
REMARK   73  A    between atoms: _172  and  _174
REMARK   74  A    between atoms: _174  and  _175
REMARK   75  A    between atoms: _174  and  _177
REMARK   76  A    between atoms: _177  and  _178
REMARK   77  A    between atoms: _184  and  _185
REMARK   78  A    between atoms: _190  and  _192
REMARK   79  A    between atoms: _192  and  _193
REMARK   80  A    between atoms: _192  and  _195
REMARK   81  A    between atoms: _195  and  _196
REMARK   82  A    between atoms: _199  and  _201
REMARK   83  A    between atoms: _201  and  _202
REMARK   84  A    between atoms: _201  and  _204
REMARK   85  A    between atoms: _206  and  _208
REMARK   86  A    between atoms: _208  and  _209
REMARK   87  A    between atoms: _212  and  _214
REMARK   88  A    between atoms: _214  and  _215
REMARK   89  A    between atoms: _214  and  _217
REMARK   90  A    between atoms: _217  and  _218
REMARK   91  A    between atoms: _221  and  _223
REMARK   92  A    between atoms: _223  and  _224
REMARK   93  A    between atoms: _223  and  _226
REMARK   94  A    between atoms: _226  and  _227
REMARK   95  A    between atoms: _230  and  _232
REMARK   96  A    between atoms: _232  and  _233
REMARK   97  A    between atoms: _232  and  _235
REMARK   98  A    between atoms: _235  and  _236
REMARK   99  A    between atoms: _241  and  _243
REMARK  100  A    between atoms: _243  and  _244
REMARK  101  A    between atoms: _246  and  _248
REMARK  102  A    between atoms: _248  and  _249
REMARK  103  A    between atoms: _252  and  _254
REMARK  104  A    between atoms: _254  and  _255
REMARK  105  A    between atoms: _254  and  _257
REMARK  106  A    between atoms: _257  and  _258
REMARK  107  A    between atoms: _260  and  _262
REMARK  108  A    between atoms: _262  and  _263
REMARK  109  A    between atoms: _262  and  _265
REMARK  110  A    between atoms: _265  and  _266
REMARK  111  A    between atoms: _266  and  _267
REMARK  112  A    between atoms: _272  and  _274
REMARK  113  A    between atoms: _274  and  _275
REMARK  114  A    between atoms: _274  and  _277
REMARK  115  A    between atoms: _277  and  _278
REMARK  116  A    between atoms: _281  and  _283
REMARK  117  A    between atoms: _283  and  _284
REMARK  118  A    between atoms: _283  and  _286
REMARK  119  A    between atoms: _286  and  _287
REMARK  120  A    between atoms: _290  and  _292
REMARK  121  A    between atoms: _292  and  _293
REMARK  122  A    between atoms: _292  and  _295
REMARK  123  A    between atoms: _295  and  _296
REMARK  124  A    between atoms: _299  and  _301
REMARK  125  A    between atoms: _301  and  _302
REMARK  126  A    between atoms: _301  and  _304
REMARK  127  A    between atoms: _304  and  _305
REMARK  128  A    between atoms: _311  and  _313
REMARK  129  A    between atoms: _313  and  _314
REMARK  130  A    between atoms: _313  and  _316
REMARK  131  A    between atoms: _316  and  _317
REMARK  132  A    between atoms: _320  and  _322
REMARK  133  A    between atoms: _322  and  _323
REMARK  134  A    between atoms: _322  and  _325
REMARK  135  A    between atoms: _325  and  _326
REMARK  136  A    between atoms: _326  and  _327
REMARK  137  A    between atoms: _327  and  MG_517
REMARK  138  A    between atoms: _329  and  _331
REMARK  139  A    between atoms: _331  and  _332
REMARK  140  A    between atoms: _331  and  _334
REMARK  141  A    between atoms: _334  and  _335
REMARK  142  A    between atoms: _340  and  _342
REMARK  143  A    between atoms: _342  and  _343
REMARK  144  A    between atoms: _342  and  _345
REMARK  145  A    between atoms: _345  and  _346
REMARK  146  A    between atoms: _356  and  _358
REMARK  147  A    between atoms: _358  and  _359
REMARK  148  A    between atoms: _358  and  _361
REMARK  149  A    between atoms: _361  and  _362
REMARK  150  A    between atoms: _362  and  _363
REMARK  151  A    between atoms: _363  and  _364
REMARK  152  A    between atoms: _364  and  _365
REMARK  153  A    between atoms: _369  and  _371
REMARK  154  A    between atoms: _371  and  _372
REMARK  155  A    between atoms: _371  and  _374
REMARK  156  A    between atoms: _374  and  _375
REMARK  157  A    between atoms: _378  and  _380
REMARK  158  A    between atoms: _380  and  _381
REMARK  159  A    between atoms: _380  and  _383
REMARK  160  A    between atoms: _383  and  _384
REMARK  161  A    between atoms: _384  and  _385
REMARK  162  A    between atoms: _385  and  _386
REMARK  163  A    between atoms: _395  and  _397
REMARK  164  A    between atoms: _397  and  _398
REMARK  165  A    between atoms: _397  and  _400
REMARK  166  A    between atoms: _400  and  _401
REMARK  167  A    between atoms: _406  and  _407
REMARK  168  A    between atoms: _409  and  _411
REMARK  169  A    between atoms: _411  and  _412
REMARK  170  A    between atoms: _411  and  _414
REMARK  171  A    between atoms: _414  and  _415
REMARK  172  A    between atoms: _418  and  _420
REMARK  173  A    between atoms: _420  and  _421
REMARK  174  A    between atoms: _420  and  _423
REMARK  175  A    between atoms: _423  and  _424
REMARK  176  A    between atoms: _427  and  _429
REMARK  177  A    between atoms: _429  and  _430
REMARK  178  A    between atoms: _429  and  _432
REMARK  179  A    between atoms: _432  and  _433
REMARK  180  A    between atoms: _438  and  _440
REMARK  181  A    between atoms: _440  and  _441
REMARK  182  A    between atoms: _440  and  _443
REMARK  183  A    between atoms: _446  and  _448
REMARK  184  A    between atoms: _448  and  _449
REMARK  185  A    between atoms: _448  and  _451
REMARK  186  A    between atoms: _455  and  _456
REMARK  187  A    between atoms: _461  and  _463
REMARK  188  A    between atoms: _463  and  _464
REMARK  189  A    between atoms: _466  and  _468
REMARK  190  A    between atoms: _468  and  _469
REMARK  191  A    between atoms: _468  and  _471
REMARK  192  A    between atoms: _471  and  _472
REMARK  193  A    between atoms: _475  and  _477
REMARK  194  A    between atoms: _477  and  _478
REMARK  195  A    between atoms: _477  and  _480
REMARK  196  A    between atoms: _480  and  _481
REMARK  197  A    between atoms: _484  and  _486
REMARK  198  A    between atoms: _486  and  _487
REMARK  199  A    between atoms: _486  and  _489
REMARK  200  A    between atoms: _489  and  _490
REMARK  201  A    between atoms: _490  and  _491
REMARK  202  A    between atoms: _494  and  _496
REMARK  203  A    between atoms: _496  and  _497
REMARK  204  A    between atoms: _496  and  _499
REMARK  205  A    between atoms: _499  and  _500
REMARK  206  A    between atoms: _505  and  _506
REMARK  207  A    between atoms: _508  and  _510
REMARK  208  A    between atoms: _510  and  _511
REMARK  209  A    between atoms: _510  and  _513
REMARK  210  A    between atoms: _513  and  _514
REMARK  211  A    between atoms: _514  and  _515
REMARK                            x       y       z     vdW  Elec       q    Type
REMARK                         _______ _______ _______ _____ _____    ______ ____
ROOT
ATOM      1  CA  ALA A   4      31.484  -4.241 -16.212  0.00  0.00    +0.149 C 
ATOM      2  CB  ALA A   4      31.424  -3.717 -17.680  0.00  0.00    +0.031 C 
ENDROOT
BRANCH   1   5
ATOM      3  C   GLY A   3      31.245  -3.001 -14.077  0.00  0.00    +0.243 C 
ATOM      4  O   GLY A   3      30.722  -3.951 -13.564  0.00  0.00    -0.273 OA
ATOM      5  N   ALA A   4      31.634  -3.029 -15.331  0.00  0.00    -0.297 N 
ATOM      6  H   ALA A   4      32.066  -2.174 -15.735  0.00  0.00    +0.150 HD
BRANCH   3   7
ATOM      7  CA  GLY A   3      31.426  -1.717 -13.273  0.00  0.00    +0.176 C 
BRANCH   7  10
ATOM      8  C   LEU A   2      29.437  -0.886 -12.145  0.00  0.00    +0.241 C 
ATOM      9  O   LEU A   2      29.616  -1.614 -11.152  0.00  0.00    -0.273 OA
ATOM     10  N   GLY A   3      30.298  -0.915 -13.230  0.00  0.00    -0.295 N 
ATOM     11  H   GLY A   3      30.088  -0.308 -14.048  0.00  0.00    +0.150 HD
BRANCH   8  12
ATOM     12  CA  LEU A   2      28.318   0.083 -12.284  0.00  0.00    +0.149 C 
BRANCH  12  14
ATOM     13  C   GLU A   1      26.508  -0.846 -13.627  0.00  0.00    +0.238 C 
ATOM     14  N   LEU A   2      27.138  -0.716 -12.469  0.00  0.00    -0.297 N 
ATOM     15  H   LEU A   2      26.756  -1.222 -11.645  0.00  0.00    +0.150 HD
ATOM     16  O   GLU A   1      26.845  -0.203 -14.653  0.00  0.00    -0.274 OA
BRANCH  13  17
ATOM     17  CA  GLU A   1      25.342  -1.848 -13.716  0.00  0.00    +0.145 C 
BRANCH  17  18
ATOM     18  N   GLU A   1      24.208  -1.275 -14.330  0.00  0.00    -0.238 NA
ATOM     19  H   GLU A   1      24.258  -1.119 -15.357  0.00  0.00    +0.142 HD
ENDBRANCH  17  18
BRANCH  17  20
ATOM     20  CB  GLU A   1      25.812  -3.078 -14.494  0.00  0.00    +0.038 C 
BRANCH  20  21
ATOM     21  CG  GLU A   1      27.095  -3.649 -14.024  0.00  0.00    +0.116 C 
BRANCH  21  22
ATOM     22  CD  GLU A   1      27.586  -4.918 -14.702  0.00  0.00    +0.365 C 
ATOM     23  OE2 GLU A   1      27.855  -5.894 -14.023  0.00  0.00    -0.246 OA
ATOM     24  OE1 GLU A   1      27.785  -4.915 -15.912  0.00  0.00    -0.246 OA
ENDBRANCH  21  22
ENDBRANCH  20  21
ENDBRANCH  17  20
ENDBRANCH  13  17
ENDBRANCH  12  14
BRANCH  12  25
ATOM     25  CB  LEU A   2      28.147   1.028 -11.072  0.00  0.00    +0.029 C 
BRANCH  25  26
ATOM     26  CG  LEU A   2      26.949   1.921 -10.994  0.00  0.00    +0.002 C 
ATOM     27  CD2 LEU A   2      26.838   2.786  -9.709  0.00  0.00    +0.000 C 
ATOM     28  CD1 LEU A   2      26.967   2.781 -12.243  0.00  0.00    +0.000 C 
ENDBRANCH  25  26
ENDBRANCH  12  25
ENDBRANCH   8  12
ENDBRANCH   7  10
ENDBRANCH   3   7
ENDBRANCH   1   5
BRANCH   1  29
ATOM     29  C   ALA A   4      32.557  -5.272 -16.090  0.00  0.00    +0.241 C 
ATOM     30  N   TYR A   5      33.785  -4.763 -16.017  0.00  0.00    -0.297 N 
ATOM     31  H   TYR A   5      33.901  -3.730 -16.054  0.00  0.00    +0.150 HD
ATOM     32  O   ALA A   4      32.331  -6.500 -16.049  0.00  0.00    -0.273 OA
BRANCH  30  33
ATOM     33  CA  TYR A   5      34.969  -5.594 -15.888  0.00  0.00    +0.153 C 
BRANCH  33  34
ATOM     34  C   TYR A   5      35.050  -6.479 -17.166  0.00  0.00    +0.241 C 
ATOM     35  N   CYS A   6      34.844  -7.779 -17.047  0.00  0.00    -0.296 N 
ATOM     36  H   CYS A   6      34.636  -8.163 -16.103  0.00  0.00    +0.150 HD
ATOM     37  O   TYR A   5      35.276  -5.928 -18.255  0.00  0.00    -0.273 OA
BRANCH  35  38
ATOM     38  CA  CYS A   6      34.896  -8.737 -18.222  0.00  0.00    +0.160 C 
BRANCH  38  39
ATOM     39  C   CYS A   6      33.539  -9.097 -18.767  0.00  0.00    +0.242 C 
ATOM     40  N   GLY A   7      32.493  -8.544 -18.155  0.00  0.00    -0.296 N 
ATOM     41  H   GLY A   7      32.666  -7.883 -17.371  0.00  0.00    +0.150 HD
ATOM     42  O   CYS A   6      33.430  -9.854 -19.745  0.00  0.00    -0.273 OA
BRANCH  40  43
ATOM     43  CA  GLY A   7      31.132  -8.825 -18.535  0.00  0.00    +0.163 C 
BRANCH  43  44
ATOM     44  C   GLY A   7      30.450 -10.001 -17.838  0.00  0.00    +0.229 C 
ATOM     45  O   GLY A   7      29.362 -10.366 -18.278  0.00  0.00    -0.286 OA
ENDBRANCH  43  44
ENDBRANCH  40  43
ENDBRANCH  38  39
BRANCH  38  46
ATOM     46  CB  CYS A   6      35.642 -10.004 -17.872  0.00  0.00    +0.098 C 
ATOM     47  SG  CYS A   6      37.427  -9.706 -17.628  0.00  0.00    -0.080 S 
ENDBRANCH  38  46
ENDBRANCH  35  38
ENDBRANCH  33  34
BRANCH  33  48
ATOM     48  CB  TYR A   5      35.104  -6.338 -14.563  0.00  0.00    +0.055 C 
BRANCH  48  49
ATOM     49  CG  TYR A   5      36.405  -7.083 -14.397  0.00  0.00    -0.020 A 
ATOM     50  CD2 TYR A   5      36.446  -8.387 -13.965  0.00  0.00    -0.001 A 
ATOM     51  CE2 TYR A   5      37.636  -9.085 -13.792  0.00  0.00    +0.036 A 
ATOM     52  CZ  TYR A   5      38.850  -8.470 -14.140  0.00  0.00    +0.134 A 
ATOM     53  CE1 TYR A   5      38.832  -7.193 -14.618  0.00  0.00    +0.036 A 
ATOM     54  CD1 TYR A   5      37.640  -6.490 -14.762  0.00  0.00    -0.001 A 
BRANCH  52  55
ATOM     55  OH  TYR A   5      40.037  -9.159 -14.035  0.00  0.00    -0.506 OA
ATOM     56  HH  TYR A   5      40.174  -9.436 -13.095  0.00  0.00    +0.292 HD
ENDBRANCH  52  55
ENDBRANCH  48  49
ENDBRANCH  33  48
ENDBRANCH  30  33
ENDBRANCH   1  29
TORSDOF 23
REMARK  Name = ../refined-set-2016/3ozt/3ozt_pocket.pdb
REMARK  211 active torsions:
REMARK  status: ('A' for Active; 'I' for Inactive)
REMARK    1  A    between atoms: _1  and  _3
REMARK    2  A    between atoms: _3  and  _4
REMARK    3  A    between atoms: _3  and  _6
REMARK    4  A    between atoms: _6  and  _7
REMARK    5  A    between atoms: _7  and  _8
REMARK    6  A    between atoms: _11  and  _13
REMARK    7  A    between atoms: _13  and  _14
REMARK    8  A    between atoms: _13  and  _16
REMARK    9  A    between atoms: _16  and  _17
REMARK   10  A    between atoms: _27  and  _29
REMARK   11  A    between atoms: _29  and  _30
REMARK   12  A    between atoms: _33  and  _35
REMARK   13  A    between atoms: _35  and  _36
REMARK   14  A    between atoms: _35  and  _38
REMARK   15  A    between atoms: _38  and  _39
REMARK   16  A    between atoms: _39  and  _40
REMARK   17  A    between atoms: _42  and  _44
REMARK   18  A    between atoms: _44  and  _45
REMARK   19  A    between atoms: _44  and  _47
REMARK   20  A    between atoms: _47  and  _48
REMARK   21  A    between atoms: _53  and  _55
REMARK   22  A    between atoms: _55  and  _56
REMARK   23  A    between atoms: _55  and  _58
REMARK   24  A    between atoms: _61  and  _63
REMARK   25  A    between atoms: _63  and  _64
REMARK   26  A    between atoms: _66  and  _68
REMARK   27  A    between atoms: _68  and  _69
REMARK   28  A    between atoms: _68  and  _71
REMARK   29  A    between atoms: _71  and  _72
REMARK   30  A    between atoms: _72  and  _73
REMARK   31  A    between atoms: _73  and  _74
REMARK   32  A    between atoms: _74  and  _75
REMARK   33  A    between atoms: _79  and  _81
REMARK   34  A    between atoms: _81  and  _82
REMARK   35  A    between atoms: _81  and  _84
REMARK   36  A    between atoms: _84  and  _85
REMARK   37  A    between atoms: _85  and  _86
REMARK   38  A    between atoms: _89  and  _91
REMARK   39  A    between atoms: _91  and  _92
REMARK   40  A    between atoms: _91  and  _94
REMARK   41  A    between atoms: _94  and  _95
REMARK   42  A    between atoms: _98  and  _100
REMARK   43  A    between atoms: _100  and  _101
REMARK   44  A    between atoms: _103  and  _105
REMARK   45  A    between atoms: _105  and  _106
REMARK   46  A    between atoms: _109  and  _111
REMARK   47  A    between atoms: _111  and  _112
REMARK   48  A    between atoms: _111  and  _114
REMARK   49  A    between atoms: _114  and  _115
REMARK   50  A    between atoms: _120  and  _121
REMARK   51  A    between atoms: _123  and  _125
REMARK   52  A    between atoms: _125  and  _126
REMARK   53  A    between atoms: _125  and  _128
REMARK   54  A    between atoms: _130  and  _132
REMARK   55  A    between atoms: _132  and  _133
REMARK   56  A    between atoms: _135  and  _137
REMARK   57  A    between atoms: _137  and  _138
REMARK   58  A    between atoms: _137  and  _140
REMARK   59  A    between atoms: _140  and  _141
REMARK   60  A    between atoms: _144  and  _146
REMARK   61  A    between atoms: _146  and  _147
REMARK   62  A    between atoms: _146  and  _149
REMARK   63  A    between atoms: _150  and  _151
REMARK   64  A    between atoms: _153  and  _155
REMARK   65  A    between atoms: _155  and  _156
REMARK   66  A    between atoms: _155  and  _158
REMARK   67  A    between atoms: _158  and  _159
REMARK   68  A    between atoms: _159  and  _160
REMARK   69  A    between atoms: _163  and  _165
REMARK   70  A    between atoms: _165  and  _166
REMARK   71  A    between atoms: _165  and  _168
REMARK   72  A    between atoms: _168  and  _169
REMARK   73  A    between atoms: _172  and  _174
REMARK   74  A    between atoms: _174  and  _175
REMARK   75  A    between atoms: _174  and  _177
REMARK   76  A    between atoms: _177  and  _178
REMARK   77  A    between atoms: _184  and  _185
REMARK   78  A    between atoms: _190  and  _192
REMARK   79  A    between atoms: _192  and  _193
REMARK   80  A    between atoms: _192  and  _195
REMARK   81  A    between atoms: _195  and  _196
REMARK   82  A    between atoms: _199  and  _201
REMARK   83  A    between atoms: _201  and  _202
REMARK   84  A    between atoms: _201  and  _204
REMARK   85  A    between atoms: _206  and  _208
REMARK   86  A    between atoms: _208  and  _209
REMARK   87  A    between atoms: _212  and  _214
REMARK   88  A    between atoms: _214  and  _215
REMARK   89  A    between atoms: _214  and  _217
REMARK   90  A    between atoms: _217  and  _218
REMARK   91  A    between atoms: _221  and  _223
REMARK   92  A    between atoms: _223  and  _224
REMARK   93  A    between atoms: _223  and  _226
REMARK   94  A    between atoms: _226  and  _227
REMARK   95  A    between atoms: _230  and  _232
REMARK   96  A    between atoms: _232  and  _233
REMARK   97  A    between atoms: _232  and  _235
REMARK   98  A    between atoms: _235  and  _236
REMARK   99  A    between atoms: _241  and  _243
REMARK  100  A    between atoms: _243  and  _244
REMARK  101  A    between atoms: _246  and  _248
REMARK  102  A    between atoms: _248  and  _249
REMARK  103  A    between atoms: _252  and  _254
REMARK  104  A    between atoms: _254  and  _255
REMARK  105  A    between atoms: _254  and  _257
REMARK  106  A    between atoms: _257  and  _258
REMARK  107  A    between atoms: _260  and  _262
REMARK  108  A    between atoms: _262  and  _263
REMARK  109  A    between atoms: _262  and  _265
REMARK  110  A    between atoms: _265  and  _266
REMARK  111  A    between atoms: _266  and  _267
REMARK  112  A    between atoms: _272  and  _274
REMARK  113  A    between atoms: _274  and  _275
REMARK  114  A    between atoms: _274  and  _277
REMARK  115  A    between atoms: _277  and  _278
REMARK  116  A    between atoms: _281  and  _283
REMARK  117  A    between atoms: _283  and  _284
REMARK  118  A    between atoms: _283  and  _286
REMARK  119  A    between atoms: _286  and  _287
REMARK  120  A    between atoms: _290  and  _292
REMARK  121  A    between atoms: _292  and  _293
REMARK  122  A    between atoms: _292  and  _295
REMARK  123  A    between atoms: _295  and  _296
REMARK  124  A    between atoms: _299  and  _301
REMARK  125  A    between atoms: _301  and  _302
REMARK  126  A    between atoms: _301  and  _304
REMARK  127  A    between atoms: _304  and  _305
REMARK  128  A    between atoms: _311  and  _313
REMARK  129  A    between atoms: _313  and  _314
REMARK  130  A    between atoms: _313  and  _316
REMARK  131  A    between atoms: _316  and  _317
REMARK  132  A    between atoms: _320  and  _322
REMARK  133  A    between atoms: _322  and  _323
REMARK  134  A    between atoms: _322  and  _325
REMARK  135  A    between atoms: _325  and  _326
REMARK  136  A    between atoms: _326  and  _327
REMARK  137  A    between atoms: _327  and  MG_517
REMARK  138  A    between atoms: _329  and  _331
REMARK  139  A    between atoms: _331  and  _332
REMARK  140  A    between atoms: _331  and  _334
REMARK  141  A    between atoms: _334  and  _335
REMARK  142  A    between atoms: _340  and  _342
REMARK  143  A    between atoms: _342  and  _343
REMARK  144  A    between atoms: _342  and  _345
REMARK  145  A    between atoms: _345  and  _346
REMARK  146  A    between atoms: _356  and  _358
REMARK  147  A    between atoms: _358  and  _359
REMARK  148  A    between atoms: _358  and  _361
REMARK  149  A    between atoms: _361  and  _362
REMARK  150  A    between atoms: _362  and  _363
REMARK  151  A    between atoms: _363  and  _364
REMARK  152  A    between atoms: _364  and  _365
REMARK  153  A    between atoms: _369  and  _371
REMARK  154  A    between atoms: _371  and  _372
REMARK  155  A    between atoms: _371  and  _374
REMARK  156  A    between atoms: _374  and  _375
REMARK  157  A    between atoms: _378  and  _380
REMARK  158  A    between atoms: _380  and  _381
REMARK  159  A    between atoms: _380  and  _383
REMARK  160  A    between atoms: _383  and  _384
REMARK  161  A    between atoms: _384  and  _385
REMARK  162  A    between atoms: _385  and  _386
REMARK  163  A    between atoms: _395  and  _397
REMARK  164  A    between atoms: _397  and  _398
REMARK  165  A    between atoms: _397  and  _400
REMARK  166  A    between atoms: _400  and  _401
REMARK  167  A    between atoms: _406  and  _407
REMARK  168  A    between atoms: _409  and  _411
REMARK  169  A    between atoms: _411  and  _412
REMARK  170  A    between atoms: _411  and  _414
REMARK  171  A    between atoms: _414  and  _415
REMARK  172  A    between atoms: _418  and  _420
REMARK  173  A    between atoms: _420  and  _421
REMARK  174  A    between atoms: _420  and  _423
REMARK  175  A    between atoms: _423  and  _424
REMARK  176  A    between atoms: _427  and  _429
REMARK  177  A    between atoms: _429  and  _430
REMARK  178  A    between atoms: _429  and  _432
REMARK  179  A    between atoms: _432  and  _433
REMARK  180  A    between atoms: _438  and  _440
REMARK  181  A    between atoms: _440  and  _441
REMARK  182  A    between atoms: _440  and  _443
REMARK  183  A    between atoms: _446  and  _448
REMARK  184  A    between atoms: _448  and  _449
REMARK  185  A    between atoms: _448  and  _451
REMARK  186  A    between atoms: _455  and  _456
REMARK  187  A    between atoms: _461  and  _463
REMARK  188  A    between atoms: _463  and  _464
REMARK  189  A    between atoms: _466  and  _468
REMARK  190  A    between atoms: _468  and  _469
REMARK  191  A    between atoms: _468  and  _471
REMARK  192  A    between atoms: _471  and  _472
REMARK  193  A    between atoms: _475  and  _477
REMARK  194  A    between atoms: _477  and  _478
REMARK  195  A    between atoms: _477  and  _480
REMARK  196  A    between atoms: _480  and  _481
REMARK  197  A    between atoms: _484  and  _486
REMARK  198  A    between atoms: _486  and  _487
REMARK  199  A    between atoms: _486  and  _489
REMARK  200  A    between atoms: _489  and  _490
REMARK  201  A    between atoms: _490  and  _491
REMARK  202  A    between atoms: _494  and  _496
REMARK  203  A    between atoms: _496  and  _497
REMARK  204  A    between atoms: _496  and  _499
REMARK  205  A    between atoms: _499  and  _500
REMARK  206  A    between atoms: _505  and  _506
REMARK  207  A    between atoms: _508  and  _510
REMARK  208  A    between atoms: _510  and  _511
REMARK  209  A    between atoms: _510  and  _513
REMARK  210  A    between atoms: _513  and  _514
REMARK  211  A    between atoms: _514  and  _515
REMARK                            x       y       z     vdW  Elec       q    Type
REMARK                         _______ _______ _______ _____ _____    ______ ____
ROOT
ATOM      1  C   ILE A   4      36.964   3.060 -18.130  0.00  0.00    +0.241 C 
ATOM      2  N   ASN A   5      37.269   1.758 -18.096  0.00  0.00    -0.297 N 
ATOM      3  H   ASN A   5      36.644   1.109 -17.577  0.00  0.00    +0.150 HD
ATOM      4  O   ILE A   4      37.629   3.900 -18.796  0.00  0.00    -0.273 OA
ENDROOT
BRANCH   2   5
ATOM      5  CA  ASN A   5      38.439   1.222 -18.757  0.00  0.00    +0.158 C 
BRANCH   5   6
ATOM      6  C   ASN A   5      38.063   0.775 -20.175  0.00  0.00    +0.244 C 
ATOM      7  O   ASN A   5      37.331  -0.213 -20.345  0.00  0.00    -0.273 OA
ATOM      8  N   PRO A   6      38.613   1.438 -21.218  0.00  0.00    -0.272 N 
ATOM      9  CD  PRO A   6      39.567   2.582 -21.220  0.00  0.00    +0.094 C 
ATOM     10  CG  PRO A   6      40.030   2.633 -22.683  0.00  0.00    +0.024 C 
ATOM     11  CB  PRO A   6      38.900   2.093 -23.503  0.00  0.00    +0.031 C 
ATOM     12  CA  PRO A   6      38.193   1.050 -22.592  0.00  0.00    +0.152 C 
BRANCH  12  13
ATOM     13  C   PRO A   6      38.573  -0.398 -22.963  0.00  0.00    +0.241 C 
ATOM     14  N   ASP A   7      39.626  -0.952 -22.378  0.00  0.00    -0.297 N 
ATOM     15  H   ASP A   7      40.189  -0.380 -21.717  0.00  0.00    +0.150 HD
ATOM     16  O   PRO A   6      37.857  -1.048 -23.741  0.00  0.00    -0.273 OA
BRANCH  14  17
ATOM     17  CA  ASP A   7      40.022  -2.323 -22.624  0.00  0.00    +0.160 C 
BRANCH  17  18
ATOM     18  C   ASP A   7      38.972  -3.308 -22.051  0.00  0.00    +0.241 C 
ATOM     19  N   CYS A   8      38.512  -3.027 -20.832  0.00  0.00    -0.296 N 
ATOM     20  H   CYS A   8      38.946  -2.243 -20.305  0.00  0.00    +0.150 HD
ATOM     21  O   ASP A   7      38.609  -4.281 -22.703  0.00  0.00    -0.273 OA
BRANCH  19  22
ATOM     22  CA  CYS A   8      37.401  -3.790 -20.192  0.00  0.00    +0.160 C 
BRANCH  22  23
ATOM     23  C   CYS A   8      36.099  -3.668 -20.961  0.00  0.00    +0.242 C 
ATOM     24  O   CYS A   8      35.368  -4.668 -21.123  0.00  0.00    -0.273 OA
ATOM     25  N   ALA A   9      35.796  -2.460 -21.450  0.00  0.00    -0.298 N 
ATOM     26  H   ALA A   9      36.452  -1.674 -21.270  0.00  0.00    +0.150 HD
BRANCH  25  27
ATOM     27  CA  ALA A   9      34.576  -2.192 -22.231  0.00  0.00    +0.137 C 
ATOM     28  CB  ALA A   9      34.400  -0.798 -22.501  0.00  0.00    +0.030 C 
BRANCH  27  29
ATOM     29  C   ALA A   9      34.552  -3.041 -23.523  0.00  0.00    +0.227 C 
ATOM     30  O   ALA A   9      33.517  -3.594 -23.878  0.00  0.00    -0.286 OA
ENDBRANCH  27  29
ENDBRANCH  25  27
ENDBRANCH  22  23
BRANCH  22  31
ATOM     31  CB  CYS A   8      37.191  -3.290 -18.745  0.00  0.00    +0.098 C 
ATOM     32  SG  CYS A   8      38.540  -3.604 -17.539  0.00  0.00    -0.080 S 
ENDBRANCH  22  31
ENDBRANCH  19  22
ENDBRANCH  17  18
BRANCH  17  33
ATOM     33  CB  ASP A   7      41.380  -2.625 -21.964  0.00  0.00    +0.143 C 
BRANCH  33  34
ATOM     34  CG  ASP A   7      42.529  -1.815 -22.555  0.00  0.00    +0.367 C 
ATOM     35  OD2 ASP A   7      43.471  -1.510 -21.802  0.00  0.00    -0.246 OA
ATOM     36  OD1 ASP A   7      42.486  -1.504 -23.758  0.00  0.00    -0.246 OA
ENDBRANCH  33  34
ENDBRANCH  17  33
ENDBRANCH  14  17
ENDBRANCH  12  13
ENDBRANCH   5   6
BRANCH   5  37
ATOM     37  CB  ASN A   5      39.027   0.082 -17.961  0.00  0.00    +0.114 C 
BRANCH  37  38
ATOM     38  CG  ASN A   5      40.341  -0.401 -18.505  0.00  0.00    +0.222 C 
ATOM     39  ND2 ASN A   5      41.243  -0.741 -17.604  0.00  0.00    -0.329 N 
ATOM     40 HD21 ASN A   5      41.046  -0.601 -16.592  0.00  0.00    +0.145 HD
ATOM     41 HD22 ASN A   5      42.151  -1.149 -17.905  0.00  0.00    +0.145 HD
ATOM     42  OD1 ASN A   5      40.518  -0.543 -19.709  0.00  0.00    -0.275 OA
ENDBRANCH  37  38
ENDBRANCH   5  37
ENDBRANCH   2   5
BRANCH   1  43
ATOM     43  CA  ILE A   4      35.703   3.528 -17.342  0.00  0.00    +0.149 C 
BRANCH  43  45
ATOM     44  C   GLU A   3      33.920   1.998 -18.093  0.00  0.00    +0.241 C 
ATOM     45  N   ILE A   4      34.780   2.382 -17.150  0.00  0.00    -0.297 N 
ATOM     46  H   ILE A   4      34.805   1.861 -16.250  0.00  0.00    +0.150 HD
ATOM     47  O   GLU A   3      33.858   2.469 -19.212  0.00  0.00    -0.273 OA
BRANCH  44  48
ATOM     48  CA  GLU A   3      32.926   0.899 -17.690  0.00  0.00    +0.149 C 
BRANCH  48  51
ATOM     49  C   MET A   2      30.601   1.112 -16.851  0.00  0.00    +0.245 C 
ATOM     50  O   MET A   2      30.845   0.446 -15.833  0.00  0.00    -0.273 OA
ATOM     51  N   GLU A   3      31.573   1.430 -17.766  0.00  0.00    -0.297 N 
ATOM     52  H   GLU A   3      31.333   2.076 -18.545  0.00  0.00    +0.150 HD
BRANCH  49  53
ATOM     53  CA  MET A   2      29.210   1.626 -17.151  0.00  0.00    +0.172 C 
BRANCH  53  55
ATOM     54  C   THR A   1      27.724  -0.025 -18.232  0.00  0.00    +0.241 C 
ATOM     55  N   MET A   2      28.241   0.512 -17.139  0.00  0.00    -0.294 N 
ATOM     56  H   MET A   2      27.948   0.127 -16.218  0.00  0.00    +0.150 HD
ATOM     57  O   THR A   1      28.045   0.295 -19.369  0.00  0.00    -0.274 OA
BRANCH  54  58
ATOM     58  CA  THR A   1      26.628  -1.033 -17.964  0.00  0.00    +0.172 C 
BRANCH  58  59
ATOM     59  N   THR A   1      25.453  -0.757 -18.776  0.00  0.00    -0.236 NA
ATOM     60  H   THR A   1      25.578  -0.599 -19.796  0.00  0.00    +0.142 HD
ENDBRANCH  58  59
BRANCH  58  61
ATOM     61  CB  THR A   1      27.091  -2.432 -18.095  0.00  0.00    +0.135 C 
ATOM     62  CG2 THR A   1      27.550  -2.799 -19.544  0.00  0.00    +0.034 C 
BRANCH  61  63
ATOM     63  OG1 THR A   1      28.173  -2.686 -17.198  0.00  0.00    -0.383 OA
ATOM     64  HG1 THR A   1      28.470  -3.625 -17.299  0.00  0.00    +0.210 HD
ENDBRANCH  61  63
ENDBRANCH  58  61
ENDBRANCH  54  58
ENDBRANCH  53  55
BRANCH  53  65
ATOM     65  CB  MET A   2      28.796   2.732 -16.178  0.00  0.00    +0.009 C 
ATOM     66  CG  MET A   2      27.525   3.468 -16.419  0.00  0.00    +0.028 C 
BRANCH  66  67
ATOM     67  SD  MET A   2      27.112   4.762 -15.277  0.00  0.00    -0.113 S 
ATOM     68  CE  MET A   2      25.662   5.478 -16.001  0.00  0.00    +0.074 C 
ENDBRANCH  66  67
ENDBRANCH  53  65
ENDBRANCH  49  53
ENDBRANCH  48  51
BRANCH  48  69
ATOM     69  CB  GLU A   3      33.077  -0.268 -18.644  0.00  0.00    +0.041 C 
BRANCH  69  70
ATOM     70  CG  GLU A   3      34.388  -1.051 -18.554  0.00  0.00    +0.116 C 
BRANCH  70  71
ATOM     71  CD  GLU A   3      34.910  -1.145 -17.148  0.00  0.00    +0.365 C 
ATOM     72  OE2 GLU A   3      34.283  -1.811 -16.317  0.00  0.00    -0.246 OA
ATOM     73  OE1 GLU A   3      35.905  -0.485 -16.851  0.00  0.00    -0.246 OA
ENDBRANCH  70  71
ENDBRANCH  69  70
ENDBRANCH  48  69
ENDBRANCH  44  48
ENDBRANCH  43  45
BRANCH  43  74
ATOM     74  CB  ILE A   4      36.064   4.119 -15.957  0.00  0.00    +0.027 C 
ATOM     75  CG2 ILE A   4      36.955   3.125 -15.212  0.00  0.00    +0.002 C 
BRANCH  74  76
ATOM     76  CG1 ILE A   4      36.712   5.521 -16.103  0.00  0.00    +0.002 C 
ATOM     77  CD1 ILE A   4      37.124   6.144 -14.746  0.00  0.00    +0.000 C 
ENDBRANCH  74  76
ENDBRANCH  43  74
ENDBRANCH   1  43
TORSDOF 31
REMARK  Name = ../refined-set-2016/3ozt/3ozt_pocket.pdb
REMARK  211 active torsions:
REMARK  status: ('A' for Active; 'I' for Inactive)
REMARK    1  A    between atoms: _1  and  _3
REMARK    2  A    between atoms: _3  and  _4
REMARK    3  A    between atoms: _3  and  _6
REMARK    4  A    between atoms: _6  and  _7
REMARK    5  A    between atoms: _7  and  _8
REMARK    6  A    between atoms: _11  and  _13
REMARK    7  A    between atoms: _13  and  _14
REMARK    8  A    between atoms: _13  and  _16
REMARK    9  A    between atoms: _16  and  _17
REMARK   10  A    between atoms: _27  and  _29
REMARK   11  A    between atoms: _29  and  _30
REMARK   12  A    between atoms: _33  and  _35
REMARK   13  A    between atoms: _35  and  _36
REMARK   14  A    between atoms: _35  and  _38
REMARK   15  A    between atoms: _38  and  _39
REMARK   16  A    between atoms: _39  and  _40
REMARK   17  A    between atoms: _42  and  _44
REMARK   18  A    between atoms: _44  and  _45
REMARK   19  A    between atoms: _44  and  _47
REMARK   20  A    between atoms: _47  and  _48
REMARK   21  A    between atoms: _53  and  _55
REMARK   22  A    between atoms: _55  and  _56
REMARK   23  A    between atoms: _55  and  _58
REMARK   24  A    between atoms: _61  and  _63
REMARK   25  A    between atoms: _63  and  _64
REMARK   26  A    between atoms: _66  and  _68
REMARK   27  A    between atoms: _68  and  _69
REMARK   28  A    between atoms: _68  and  _71
REMARK   29  A    between atoms: _71  and  _72
REMARK   30  A    between atoms: _72  and  _73
REMARK   31  A    between atoms: _73  and  _74
REMARK   32  A    between atoms: _74  and  _75
REMARK   33  A    between atoms: _79  and  _81
REMARK   34  A    between atoms: _81  and  _82
REMARK   35  A    between atoms: _81  and  _84
REMARK   36  A    between atoms: _84  and  _85
REMARK   37  A    between atoms: _85  and  _86
REMARK   38  A    between atoms: _89  and  _91
REMARK   39  A    between atoms: _91  and  _92
REMARK   40  A    between atoms: _91  and  _94
REMARK   41  A    between atoms: _94  and  _95
REMARK   42  A    between atoms: _98  and  _100
REMARK   43  A    between atoms: _100  and  _101
REMARK   44  A    between atoms: _103  and  _105
REMARK   45  A    between atoms: _105  and  _106
REMARK   46  A    between atoms: _109  and  _111
REMARK   47  A    between atoms: _111  and  _112
REMARK   48  A    between atoms: _111  and  _114
REMARK   49  A    between atoms: _114  and  _115
REMARK   50  A    between atoms: _120  and  _121
REMARK   51  A    between atoms: _123  and  _125
REMARK   52  A    between atoms: _125  and  _126
REMARK   53  A    between atoms: _125  and  _128
REMARK   54  A    between atoms: _130  and  _132
REMARK   55  A    between atoms: _132  and  _133
REMARK   56  A    between atoms: _135  and  _137
REMARK   57  A    between atoms: _137  and  _138
REMARK   58  A    between atoms: _137  and  _140
REMARK   59  A    between atoms: _140  and  _141
REMARK   60  A    between atoms: _144  and  _146
REMARK   61  A    between atoms: _146  and  _147
REMARK   62  A    between atoms: _146  and  _149
REMARK   63  A    between atoms: _150  and  _151
REMARK   64  A    between atoms: _153  and  _155
REMARK   65  A    between atoms: _155  and  _156
REMARK   66  A    between atoms: _155  and  _158
REMARK   67  A    between atoms: _158  and  _159
REMARK   68  A    between atoms: _159  and  _160
REMARK   69  A    between atoms: _163  and  _165
REMARK   70  A    between atoms: _165  and  _166
REMARK   71  A    between atoms: _165  and  _168
REMARK   72  A    between atoms: _168  and  _169
REMARK   73  A    between atoms: _172  and  _174
REMARK   74  A    between atoms: _174  and  _175
REMARK   75  A    between atoms: _174  and  _177
REMARK   76  A    between atoms: _177  and  _178
REMARK   77  A    between atoms: _184  and  _185
REMARK   78  A    between atoms: _190  and  _192
REMARK   79  A    between atoms: _192  and  _193
REMARK   80  A    between atoms: _192  and  _195
REMARK   81  A    between atoms: _195  and  _196
REMARK   82  A    between atoms: _199  and  _201
REMARK   83  A    between atoms: _201  and  _202
REMARK   84  A    between atoms: _201  and  _204
REMARK   85  A    between atoms: _206  and  _208
REMARK   86  A    between atoms: _208  and  _209
REMARK   87  A    between atoms: _212  and  _214
REMARK   88  A    between atoms: _214  and  _215
REMARK   89  A    between atoms: _214  and  _217
REMARK   90  A    between atoms: _217  and  _218
REMARK   91  A    between atoms: _221  and  _223
REMARK   92  A    between atoms: _223  and  _224
REMARK   93  A    between atoms: _223  and  _226
REMARK   94  A    between atoms: _226  and  _227
REMARK   95  A    between atoms: _230  and  _232
REMARK   96  A    between atoms: _232  and  _233
REMARK   97  A    between atoms: _232  and  _235
REMARK   98  A    between atoms: _235  and  _236
REMARK   99  A    between atoms: _241  and  _243
REMARK  100  A    between atoms: _243  and  _244
REMARK  101  A    between atoms: _246  and  _248
REMARK  102  A    between atoms: _248  and  _249
REMARK  103  A    between atoms: _252  and  _254
REMARK  104  A    between atoms: _254  and  _255
REMARK  105  A    between atoms: _254  and  _257
REMARK  106  A    between atoms: _257  and  _258
REMARK  107  A    between atoms: _260  and  _262
REMARK  108  A    between atoms: _262  and  _263
REMARK  109  A    between atoms: _262  and  _265
REMARK  110  A    between atoms: _265  and  _266
REMARK  111  A    between atoms: _266  and  _267
REMARK  112  A    between atoms: _272  and  _274
REMARK  113  A    between atoms: _274  and  _275
REMARK  114  A    between atoms: _274  and  _277
REMARK  115  A    between atoms: _277  and  _278
REMARK  116  A    between atoms: _281  and  _283
REMARK  117  A    between atoms: _283  and  _284
REMARK  118  A    between atoms: _283  and  _286
REMARK  119  A    between atoms: _286  and  _287
REMARK  120  A    between atoms: _290  and  _292
REMARK  121  A    between atoms: _292  and  _293
REMARK  122  A    between atoms: _292  and  _295
REMARK  123  A    between atoms: _295  and  _296
REMARK  124  A    between atoms: _299  and  _301
REMARK  125  A    between atoms: _301  and  _302
REMARK  126  A    between atoms: _301  and  _304
REMARK  127  A    between atoms: _304  and  _305
REMARK  128  A    between atoms: _311  and  _313
REMARK  129  A    between atoms: _313  and  _314
REMARK  130  A    between atoms: _313  and  _316
REMARK  131  A    between atoms: _316  and  _317
REMARK  132  A    between atoms: _320  and  _322
REMARK  133  A    between atoms: _322  and  _323
REMARK  134  A    between atoms: _322  and  _325
REMARK  135  A    between atoms: _325  and  _326
REMARK  136  A    between atoms: _326  and  _327
REMARK  137  A    between atoms: _327  and  MG_517
REMARK  138  A    between atoms: _329  and  _331
REMARK  139  A    between atoms: _331  and  _332
REMARK  140  A    between atoms: _331  and  _334
REMARK  141  A    between atoms: _334  and  _335
REMARK  142  A    between atoms: _340  and  _342
REMARK  143  A    between atoms: _342  and  _343
REMARK  144  A    between atoms: _342  and  _345
REMARK  145  A    between atoms: _345  and  _346
REMARK  146  A    between atoms: _356  and  _358
REMARK  147  A    between atoms: _358  and  _359
REMARK  148  A    between atoms: _358  and  _361
REMARK  149  A    between atoms: _361  and  _362
REMARK  150  A    between atoms: _362  and  _363
REMARK  151  A    between atoms: _363  and  _364
REMARK  152  A    between atoms: _364  and  _365
REMARK  153  A    between atoms: _369  and  _371
REMARK  154  A    between atoms: _371  and  _372
REMARK  155  A    between atoms: _371  and  _374
REMARK  156  A    between atoms: _374  and  _375
REMARK  157  A    between atoms: _378  and  _380
REMARK  158  A    between atoms: _380  and  _381
REMARK  159  A    between atoms: _380  and  _383
REMARK  160  A    between atoms: _383  and  _384
REMARK  161  A    between atoms: _384  and  _385
REMARK  162  A    between atoms: _385  and  _386
REMARK  163  A    between atoms: _395  and  _397
REMARK  164  A    between atoms: _397  and  _398
REMARK  165  A    between atoms: _397  and  _400
REMARK  166  A    between atoms: _400  and  _401
REMARK  167  A    between atoms: _406  and  _407
REMARK  168  A    between atoms: _409  and  _411
REMARK  169  A    between atoms: _411  and  _412
REMARK  170  A    between atoms: _411  and  _414
REMARK  171  A    between atoms: _414  and  _415
REMARK  172  A    between atoms: _418  and  _420
REMARK  173  A    between atoms: _420  and  _421
REMARK  174  A    between atoms: _420  and  _423
REMARK  175  A    between atoms: _423  and  _424
REMARK  176  A    between atoms: _427  and  _429
REMARK  177  A    between atoms: _429  and  _430
REMARK  178  A    between atoms: _429  and  _432
REMARK  179  A    between atoms: _432  and  _433
REMARK  180  A    between atoms: _438  and  _440
REMARK  181  A    between atoms: _440  and  _441
REMARK  182  A    between atoms: _440  and  _443
REMARK  183  A    between atoms: _446  and  _448
REMARK  184  A    between atoms: _448  and  _449
REMARK  185  A    between atoms: _448  and  _451
REMARK  186  A    between atoms: _455  and  _456
REMARK  187  A    between atoms: _461  and  _463
REMARK  188  A    between atoms: _463  and  _464
REMARK  189  A    between atoms: _466  and  _468
REMARK  190  A    between atoms: _468  and  _469
REMARK  191  A    between atoms: _468  and  _471
REMARK  192  A    between atoms: _471  and  _472
REMARK  193  A    between atoms: _475  and  _477
REMARK  194  A    between atoms: _477  and  _478
REMARK  195  A    between atoms: _477  and  _480
REMARK  196  A    between atoms: _480  and  _481
REMARK  197  A    between atoms: _484  and  _486
REMARK  198  A    between atoms: _486  and  _487
REMARK  199  A    between atoms: _486  and  _489
REMARK  200  A    between atoms: _489  and  _490
REMARK  201  A    between atoms: _490  and  _491
REMARK  202  A    between atoms: _494  and  _496
REMARK  203  A    between atoms: _496  and  _497
REMARK  204  A    between atoms: _496  and  _499
REMARK  205  A    between atoms: _499  and  _500
REMARK  206  A    between atoms: _505  and  _506
REMARK  207  A    between atoms: _508  and  _510
REMARK  208  A    between atoms: _510  and  _511
REMARK  209  A    between atoms: _510  and  _513
REMARK  210  A    between atoms: _513  and  _514
REMARK  211  A    between atoms: _514  and  _515
REMARK                            x       y       z     vdW  Elec       q    Type
REMARK                         _______ _______ _______ _____ _____    ______ ____
ROOT
ATOM      1  CA  THR A   1      32.684  -6.979 -22.111  0.00  0.00    +0.160 C 
ENDROOT
BRANCH   1   2
ATOM      2  N   THR A   1      34.086  -6.772 -22.499  0.00  0.00    -0.237 NA
ATOM      3  H   THR A   1      34.592  -5.936 -22.142  0.00  0.00    +0.142 HD
ENDBRANCH   1   2
BRANCH   1   4
ATOM      4  CB  THR A   1      32.227  -5.856 -21.151  0.00  0.00    +0.134 C 
ATOM      5  CG2 THR A   1      30.713  -5.906 -20.898  0.00  0.00    +0.034 C 
BRANCH   4   6
ATOM      6  OG1 THR A   1      32.954  -5.976 -19.918  0.00  0.00    -0.383 OA
ATOM      7  HG1 THR A   1      33.924  -5.890 -20.098  0.00  0.00    +0.210 HD
ENDBRANCH   4   6
ENDBRANCH   1   4
BRANCH   1   8
ATOM      8  C   THR A   1      31.734  -7.063 -23.348  0.00  0.00    +0.227 C 
ATOM      9  O   THR A   1      30.862  -7.939 -23.469  0.00  0.00    -0.287 OA
ENDBRANCH   1   8
TORSDOF 4
REMARK  Name = ../refined-set-2016/3ozt/3ozt_pocket.pdb
REMARK  211 active torsions:
REMARK  status: ('A' for Active; 'I' for Inactive)
REMARK    1  A    between atoms: _1  and  _3
REMARK    2  A    between atoms: _3  and  _4
REMARK    3  A    between atoms: _3  and  _6
REMARK    4  A    between atoms: _6  and  _7
REMARK    5  A    between atoms: _7  and  _8
REMARK    6  A    between atoms: _11  and  _13
REMARK    7  A    between atoms: _13  and  _14
REMARK    8  A    between atoms: _13  and  _16
REMARK    9  A    between atoms: _16  and  _17
REMARK   10  A    between atoms: _27  and  _29
REMARK   11  A    between atoms: _29  and  _30
REMARK   12  A    between atoms: _33  and  _35
REMARK   13  A    between atoms: _35  and  _36
REMARK   14  A    between atoms: _35  and  _38
REMARK   15  A    between atoms: _38  and  _39
REMARK   16  A    between atoms: _39  and  _40
REMARK   17  A    between atoms: _42  and  _44
REMARK   18  A    between atoms: _44  and  _45
REMARK   19  A    between atoms: _44  and  _47
REMARK   20  A    between atoms: _47  and  _48
REMARK   21  A    between atoms: _53  and  _55
REMARK   22  A    between atoms: _55  and  _56
REMARK   23  A    between atoms: _55  and  _58
REMARK   24  A    between atoms: _61  and  _63
REMARK   25  A    between atoms: _63  and  _64
REMARK   26  A    between atoms: _66  and  _68
REMARK   27  A    between atoms: _68  and  _69
REMARK   28  A    between atoms: _68  and  _71
REMARK   29  A    between atoms: _71  and  _72
REMARK   30  A    between atoms: _72  and  _73
REMARK   31  A    between atoms: _73  and  _74
REMARK   32  A    between atoms: _74  and  _75
REMARK   33  A    between atoms: _79  and  _81
REMARK   34  A    between atoms: _81  and  _82
REMARK   35  A    between atoms: _81  and  _84
REMARK   36  A    between atoms: _84  and  _85
REMARK   37  A    between atoms: _85  and  _86
REMARK   38  A    between atoms: _89  and  _91
REMARK   39  A    between atoms: _91  and  _92
REMARK   40  A    between atoms: _91  and  _94
REMARK   41  A    between atoms: _94  and  _95
REMARK   42  A    between atoms: _98  and  _100
REMARK   43  A    between atoms: _100  and  _101
REMARK   44  A    between atoms: _103  and  _105
REMARK   45  A    between atoms: _105  and  _106
REMARK   46  A    between atoms: _109  and  _111
REMARK   47  A    between atoms: _111  and  _112
REMARK   48  A    between atoms: _111  and  _114
REMARK   49  A    between atoms: _114  and  _115
REMARK   50  A    between atoms: _120  and  _121
REMARK   51  A    between atoms: _123  and  _125
REMARK   52  A    between atoms: _125  and  _126
REMARK   53  A    between atoms: _125  and  _128
REMARK   54  A    between atoms: _130  and  _132
REMARK   55  A    between atoms: _132  and  _133
REMARK   56  A    between atoms: _135  and  _137
REMARK   57  A    between atoms: _137  and  _138
REMARK   58  A    between atoms: _137  and  _140
REMARK   59  A    between atoms: _140  and  _141
REMARK   60  A    between atoms: _144  and  _146
REMARK   61  A    between atoms: _146  and  _147
REMARK   62  A    between atoms: _146  and  _149
REMARK   63  A    between atoms: _150  and  _151
REMARK   64  A    between atoms: _153  and  _155
REMARK   65  A    between atoms: _155  and  _156
REMARK   66  A    between atoms: _155  and  _158
REMARK   67  A    between atoms: _158  and  _159
REMARK   68  A    between atoms: _159  and  _160
REMARK   69  A    between atoms: _163  and  _165
REMARK   70  A    between atoms: _165  and  _166
REMARK   71  A    between atoms: _165  and  _168
REMARK   72  A    between atoms: _168  and  _169
REMARK   73  A    between atoms: _172  and  _174
REMARK   74  A    between atoms: _174  and  _175
REMARK   75  A    between atoms: _174  and  _177
REMARK   76  A    between atoms: _177  and  _178
REMARK   77  A    between atoms: _184  and  _185
REMARK   78  A    between atoms: _190  and  _192
REMARK   79  A    between atoms: _192  and  _193
REMARK   80  A    between atoms: _192  and  _195
REMARK   81  A    between atoms: _195  and  _196
REMARK   82  A    between atoms: _199  and  _201
REMARK   83  A    between atoms: _201  and  _202
REMARK   84  A    between atoms: _201  and  _204
REMARK   85  A    between atoms: _206  and  _208
REMARK   86  A    between atoms: _208  and  _209
REMARK   87  A    between atoms: _212  and  _214
REMARK   88  A    between atoms: _214  and  _215
REMARK   89  A    between atoms: _214  and  _217
REMARK   90  A    between atoms: _217  and  _218
REMARK   91  A    between atoms: _221  and  _223
REMARK   92  A    between atoms: _223  and  _224
REMARK   93  A    between atoms: _223  and  _226
REMARK   94  A    between atoms: _226  and  _227
REMARK   95  A    between atoms: _230  and  _232
REMARK   96  A    between atoms: _232  and  _233
REMARK   97  A    between atoms: _232  and  _235
REMARK   98  A    between atoms: _235  and  _236
REMARK   99  A    between atoms: _241  and  _243
REMARK  100  A    between atoms: _243  and  _244
REMARK  101  A    between atoms: _246  and  _248
REMARK  102  A    between atoms: _248  and  _249
REMARK  103  A    between atoms: _252  and  _254
REMARK  104  A    between atoms: _254  and  _255
REMARK  105  A    between atoms: _254  and  _257
REMARK  106  A    between atoms: _257  and  _258
REMARK  107  A    between atoms: _260  and  _262
REMARK  108  A    between atoms: _262  and  _263
REMARK  109  A    between atoms: _262  and  _265
REMARK  110  A    between atoms: _265  and  _266
REMARK  111  A    between atoms: _266  and  _267
REMARK  112  A    between atoms: _272  and  _274
REMARK  113  A    between atoms: _274  and  _275
REMARK  114  A    between atoms: _274  and  _277
REMARK  115  A    between atoms: _277  and  _278
REMARK  116  A    between atoms: _281  and  _283
REMARK  117  A    between atoms: _283  and  _284
REMARK  118  A    between atoms: _283  and  _286
REMARK  119  A    between atoms: _286  and  _287
REMARK  120  A    between atoms: _290  and  _292
REMARK  121  A    between atoms: _292  and  _293
REMARK  122  A    between atoms: _292  and  _295
REMARK  123  A    between atoms: _295  and  _296
REMARK  124  A    between atoms: _299  and  _301
REMARK  125  A    between atoms: _301  and  _302
REMARK  126  A    between atoms: _301  and  _304
REMARK  127  A    between atoms: _304  and  _305
REMARK  128  A    between atoms: _311  and  _313
REMARK  129  A    between atoms: _313  and  _314
REMARK  130  A    between atoms: _313  and  _316
REMARK  131  A    between atoms: _316  and  _317
REMARK  132  A    between atoms: _320  and  _322
REMARK  133  A    between atoms: _322  and  _323
REMARK  134  A    between atoms: _322  and  _325
REMARK  135  A    between atoms: _325  and  _326
REMARK  136  A    between atoms: _326  and  _327
REMARK  137  A    between atoms: _327  and  MG_517
REMARK  138  A    between atoms: _329  and  _331
REMARK  139  A    between atoms: _331  and  _332
REMARK  140  A    between atoms: _331  and  _334
REMARK  141  A    between atoms: _334  and  _335
REMARK  142  A    between atoms: _340  and  _342
REMARK  143  A    between atoms: _342  and  _343
REMARK  144  A    between atoms: _342  and  _345
REMARK  145  A    between atoms: _345  and  _346
REMARK  146  A    between atoms: _356  and  _358
REMARK  147  A    between atoms: _358  and  _359
REMARK  148  A    between atoms: _358  and  _361
REMARK  149  A    between atoms: _361  and  _362
REMARK  150  A    between atoms: _362  and  _363
REMARK  151  A    between atoms: _363  and  _364
REMARK  152  A    between atoms: _364  and  _365
REMARK  153  A    between atoms: _369  and  _371
REMARK  154  A    between atoms: _371  and  _372
REMARK  155  A    between atoms: _371  and  _374
REMARK  156  A    between atoms: _374  and  _375
REMARK  157  A    between atoms: _378  and  _380
REMARK  158  A    between atoms: _380  and  _381
REMARK  159  A    between atoms: _380  and  _383
REMARK  160  A    between atoms: _383  and  _384
REMARK  161  A    between atoms: _384  and  _385
REMARK  162  A    between atoms: _385  and  _386
REMARK  163  A    between atoms: _395  and  _397
REMARK  164  A    between atoms: _397  and  _398
REMARK  165  A    between atoms: _397  and  _400
REMARK  166  A    between atoms: _400  and  _401
REMARK  167  A    between atoms: _406  and  _407
REMARK  168  A    between atoms: _409  and  _411
REMARK  169  A    between atoms: _411  and  _412
REMARK  170  A    between atoms: _411  and  _414
REMARK  171  A    between atoms: _414  and  _415
REMARK  172  A    between atoms: _418  and  _420
REMARK  173  A    between atoms: _420  and  _421
REMARK  174  A    between atoms: _420  and  _423
REMARK  175  A    between atoms: _423  and  _424
REMARK  176  A    between atoms: _427  and  _429
REMARK  177  A    between atoms: _429  and  _430
REMARK  178  A    between atoms: _429  and  _432
REMARK  179  A    between atoms: _432  and  _433
REMARK  180  A    between atoms: _438  and  _440
REMARK  181  A    between atoms: _440  and  _441
REMARK  182  A    between atoms: _440  and  _443
REMARK  183  A    between atoms: _446  and  _448
REMARK  184  A    between atoms: _448  and  _449
REMARK  185  A    between atoms: _448  and  _451
REMARK  186  A    between atoms: _455  and  _456
REMARK  187  A    between atoms: _461  and  _463
REMARK  188  A    between atoms: _463  and  _464
REMARK  189  A    between atoms: _466  and  _468
REMARK  190  A    between atoms: _468  and  _469
REMARK  191  A    between atoms: _468  and  _471
REMARK  192  A    between atoms: _471  and  _472
REMARK  193  A    between atoms: _475  and  _477
REMARK  194  A    between atoms: _477  and  _478
REMARK  195  A    between atoms: _477  and  _480
REMARK  196  A    between atoms: _480  and  _481
REMARK  197  A    between atoms: _484  and  _486
REMARK  198  A    between atoms: _486  and  _487
REMARK  199  A    between atoms: _486  and  _489
REMARK  200  A    between atoms: _489  and  _490
REMARK  201  A    between atoms: _490  and  _491
REMARK  202  A    between atoms: _494  and  _496
REMARK  203  A    between atoms: _496  and  _497
REMARK  204  A    between atoms: _496  and  _499
REMARK  205  A    between atoms: _499  and  _500
REMARK  206  A    between atoms: _505  and  _506
REMARK  207  A    between atoms: _508  and  _510
REMARK  208  A    between atoms: _510  and  _511
REMARK  209  A    between atoms: _510  and  _513
REMARK  210  A    between atoms: _513  and  _514
REMARK  211  A    between atoms: _514  and  _515
REMARK                            x       y       z     vdW  Elec       q    Type
REMARK                         _______ _______ _______ _____ _____    ______ ____
ROOT
ATOM      1  C   SER A   5      29.683   8.004 -13.228  0.00  0.00    +0.243 C 
ATOM      2  N   GLN A   6      30.478   8.795 -12.489  0.00  0.00    -0.297 N 
ATOM      3  H   GLN A   6      31.431   8.468 -12.232  0.00  0.00    +0.150 HD
ATOM      4  O   SER A   5      28.595   8.390 -13.503  0.00  0.00    -0.273 OA
ENDROOT
BRANCH   2   5
ATOM      5  CA  GLN A   6      30.021  10.108 -12.042  0.00  0.00    +0.149 C 
BRANCH   5   6
ATOM      6  C   GLN A   6      29.797  11.097 -13.218  0.00  0.00    +0.241 C 
ATOM      7  O   GLN A   6      29.058  12.065 -13.077  0.00  0.00    -0.273 OA
ATOM      8  N   ASP A   7      30.461  10.799 -14.342  0.00  0.00    -0.297 N 
ATOM      9  H   ASP A   7      31.071   9.957 -14.357  0.00  0.00    +0.150 HD
BRANCH   8  10
ATOM     10  CA  ASP A   7      30.356  11.626 -15.560  0.00  0.00    +0.160 C 
BRANCH  10  11
ATOM     11  C   ASP A   7      29.167  11.148 -16.407  0.00  0.00    +0.241 C 
ATOM     12  N   LEU A   8      28.921   9.837 -16.392  0.00  0.00    -0.297 N 
ATOM     13  H   LEU A   8      29.515   9.228 -15.793  0.00  0.00    +0.150 HD
ATOM     14  O   ASP A   7      28.450  11.969 -16.966  0.00  0.00    -0.273 OA
BRANCH  12  15
ATOM     15  CA  LEU A   8      27.829   9.199 -17.197  0.00  0.00    +0.149 C 
BRANCH  15  16
ATOM     16  C   LEU A   8      26.459   9.280 -16.580  0.00  0.00    +0.241 C 
ATOM     17  N   ILE A   9      26.364   9.160 -15.232  0.00  0.00    -0.298 N 
ATOM     18  H   ILE A   9      27.230   9.077 -14.662  0.00  0.00    +0.150 HD
ATOM     19  O   LEU A   8      25.463   9.407 -17.274  0.00  0.00    -0.273 OA
BRANCH  17  20
ATOM     20  CA  ILE A   9      25.075   9.146 -14.578  0.00  0.00    +0.137 C 
BRANCH  20  21
ATOM     21  C   ILE A   9      24.190  10.360 -14.928  0.00  0.00    +0.227 C 
ATOM     22  O   ILE A   9      22.993  10.242 -15.234  0.00  0.00    -0.286 OA
ENDBRANCH  20  21
BRANCH  20  23
ATOM     23  CB  ILE A   9      25.272   8.933 -13.000  0.00  0.00    +0.026 C 
ATOM     24  CG2 ILE A   9      24.012   9.387 -12.244  0.00  0.00    +0.002 C 
BRANCH  23  25
ATOM     25  CG1 ILE A   9      25.583   7.468 -12.735  0.00  0.00    +0.002 C 
ATOM     26  CD1 ILE A   9      26.022   7.241 -11.228  0.00  0.00    +0.000 C 
ENDBRANCH  23  25
ENDBRANCH  20  23
ENDBRANCH  17  20
ENDBRANCH  15  16
BRANCH  15  27
ATOM     27  CB  LEU A   8      28.189   7.746 -17.540  0.00  0.00    +0.029 C 
BRANCH  27  28
ATOM     28  CG  LEU A   8      29.512   7.526 -18.254  0.00  0.00    +0.002 C 
ATOM     29  CD2 LEU A   8      29.972   6.082 -18.367  0.00  0.00    +0.000 C 
ATOM     30  CD1 LEU A   8      29.321   8.204 -19.638  0.00  0.00    +0.000 C 
ENDBRANCH  27  28
ENDBRANCH  15  27
ENDBRANCH  12  15
ENDBRANCH  10  11
BRANCH  10  31
ATOM     31  CB  ASP A   7      31.640  11.568 -16.376  0.00  0.00    +0.143 C 
BRANCH  31  32
ATOM     32  CG  ASP A   7      32.825  12.277 -15.683  0.00  0.00    +0.367 C 
ATOM     33  OD2 ASP A   7      32.566  13.214 -14.950  0.00  0.00    -0.246 OA
ATOM     34  OD1 ASP A   7      33.942  11.781 -15.811  0.00  0.00    -0.246 OA
ENDBRANCH  31  32
ENDBRANCH  10  31
ENDBRANCH   8  10
ENDBRANCH   5   6
BRANCH   5  35
ATOM     35  CB  GLN A   6      30.926  10.740 -10.951  0.00  0.00    +0.039 C 
BRANCH  35  36
ATOM     36  CG  GLN A   6      32.292  11.064 -11.358  0.00  0.00    +0.087 C 
BRANCH  36  37
ATOM     37  CD  GLN A   6      33.306   9.981 -11.070  0.00  0.00    +0.219 C 
ATOM     38  NE2 GLN A   6      34.509  10.414 -10.710  0.00  0.00    -0.329 N 
ATOM     39 HE21 GLN A   6      35.258   9.732 -10.474  0.00  0.00    +0.145 HD
ATOM     40 HE22 GLN A   6      34.702  11.435 -10.664  0.00  0.00    +0.145 HD
ATOM     41  OE1 GLN A   6      33.026   8.767 -11.140  0.00  0.00    -0.275 OA
ENDBRANCH  36  37
ENDBRANCH  35  36
ENDBRANCH   5  35
ENDBRANCH   2   5
BRANCH   1  42
ATOM     42  CA  SER A   5      30.162   6.616 -13.585  0.00  0.00    +0.178 C 
BRANCH  42  44
ATOM     43  C   ALA A   4      31.995   7.352 -14.968  0.00  0.00    +0.241 C 
ATOM     44  N   SER A   5      31.544   6.519 -14.012  0.00  0.00    -0.295 N 
ATOM     45  H   SER A   5      32.179   5.815 -13.585  0.00  0.00    +0.150 HD
ATOM     46  O   ALA A   4      31.236   8.173 -15.509  0.00  0.00    -0.273 OA
BRANCH  43  47
ATOM     47  CA  ALA A   4      33.455   7.219 -15.326  0.00  0.00    +0.149 C 
ATOM     48  CB  ALA A   4      34.270   8.355 -14.668  0.00  0.00    +0.031 C 
BRANCH  47  50
ATOM     49  C   GLY A   3      33.238   6.315 -17.572  0.00  0.00    +0.243 C 
ATOM     50  N   ALA A   4      33.483   7.336 -16.790  0.00  0.00    -0.297 N 
ATOM     51  H   ALA A   4      33.704   8.258 -17.218  0.00  0.00    +0.150 HD
ATOM     52  O   GLY A   3      33.013   5.169 -17.161  0.00  0.00    -0.273 OA
BRANCH  49  53
ATOM     53  CA  GLY A   3      33.316   6.619 -19.052  0.00  0.00    +0.176 C 
BRANCH  53  55
ATOM     54  C   ASN A   2      32.679   5.488 -21.027  0.00  0.00    +0.241 C 
ATOM     55  N   GLY A   3      33.130   5.425 -19.787  0.00  0.00    -0.295 N 
ATOM     56  H   GLY A   3      33.347   4.504 -19.354  0.00  0.00    +0.150 HD
ATOM     57  O   ASN A   2      32.409   6.559 -21.527  0.00  0.00    -0.273 OA
BRANCH  54  58
ATOM     58  CA  ASN A   2      32.384   4.199 -21.739  0.00  0.00    +0.158 C 
BRANCH  58  61
ATOM     59  C   LEU A   1      30.155   3.319 -21.197  0.00  0.00    +0.238 C 
ATOM     60  O   LEU A   1      30.582   2.752 -20.211  0.00  0.00    -0.274 OA
ATOM     61  N   ASN A   2      30.935   4.077 -21.973  0.00  0.00    -0.297 N 
ATOM     62  H   ASN A   2      30.506   4.596 -22.766  0.00  0.00    +0.150 HD
BRANCH  59  63
ATOM     63  CA  LEU A   1      28.718   3.155 -21.634  0.00  0.00    +0.145 C 
BRANCH  63  64
ATOM     64  N   LEU A   1      28.390   1.753 -21.737  0.00  0.00    -0.238 NA
ATOM     65  H   LEU A   1      28.312   1.194 -20.864  0.00  0.00    +0.142 HD
ENDBRANCH  63  64
BRANCH  63  66
ATOM     66  CB  LEU A   1      27.766   3.873 -20.664  0.00  0.00    +0.026 C 
BRANCH  66  67
ATOM     67  CG  LEU A   1      26.311   4.119 -21.067  0.00  0.00    +0.002 C 
ATOM     68  CD2 LEU A   1      25.682   5.072 -20.176  0.00  0.00    +0.000 C 
ATOM     69  CD1 LEU A   1      25.537   2.838 -21.050  0.00  0.00    +0.000 C 
ENDBRANCH  66  67
ENDBRANCH  63  66
ENDBRANCH  59  63
ENDBRANCH  58  61
BRANCH  58  70
ATOM     70  CB  ASN A   2      33.044   4.205 -23.129  0.00  0.00    +0.114 C 
BRANCH  70  71
ATOM     71  CG  ASN A   2      32.966   2.884 -23.777  0.00  0.00    +0.222 C 
ATOM     72  OD1 ASN A   2      33.709   1.964 -23.422  0.00  0.00    -0.275 OA
ATOM     73  ND2 ASN A   2      32.025   2.742 -24.737  0.00  0.00    -0.329 N 
ATOM     74 HD21 ASN A   2      31.424   3.549 -25.000  0.00  0.00    +0.145 HD
ATOM     75 HD22 ASN A   2      31.902   1.826 -25.213  0.00  0.00    +0.145 HD
ENDBRANCH  70  71
ENDBRANCH  58  70
ENDBRANCH  54  58
ENDBRANCH  53  55
ENDBRANCH  49  53
ENDBRANCH  47  50
ENDBRANCH  43  47
ENDBRANCH  42  44
BRANCH  42  76
ATOM     76  CB  SER A   5      29.986   5.645 -12.402  0.00  0.00    +0.166 C 
BRANCH  76  77
ATOM     77  OG  SER A   5      30.906   5.997 -11.349  0.00  0.00    -0.380 OA
ATOM     78  H   SER A   5      30.791   5.372 -10.590  0.00  0.00    +0.211 HD
ENDBRANCH  76  77
ENDBRANCH  42  76
ENDBRANCH   1  42
TORSDOF 33
REMARK  Name = ../refined-set-2016/3ozt/3ozt_pocket.pdb
REMARK  211 active torsions:
REMARK  status: ('A' for Active; 'I' for Inactive)
REMARK    1  A    between atoms: _1  and  _3
REMARK    2  A    between atoms: _3  and  _4
REMARK    3  A    between atoms: _3  and  _6
REMARK    4  A    between atoms: _6  and  _7
REMARK    5  A    between atoms: _7  and  _8
REMARK    6  A    between atoms: _11  and  _13
REMARK    7  A    between atoms: _13  and  _14
REMARK    8  A    between atoms: _13  and  _16
REMARK    9  A    between atoms: _16  and  _17
REMARK   10  A    between atoms: _27  and  _29
REMARK   11  A    between atoms: _29  and  _30
REMARK   12  A    between atoms: _33  and  _35
REMARK   13  A    between atoms: _35  and  _36
REMARK   14  A    between atoms: _35  and  _38
REMARK   15  A    between atoms: _38  and  _39
REMARK   16  A    between atoms: _39  and  _40
REMARK   17  A    between atoms: _42  and  _44
REMARK   18  A    between atoms: _44  and  _45
REMARK   19  A    between atoms: _44  and  _47
REMARK   20  A    between atoms: _47  and  _48
REMARK   21  A    between atoms: _53  and  _55
REMARK   22  A    between atoms: _55  and  _56
REMARK   23  A    between atoms: _55  and  _58
REMARK   24  A    between atoms: _61  and  _63
REMARK   25  A    between atoms: _63  and  _64
REMARK   26  A    between atoms: _66  and  _68
REMARK   27  A    between atoms: _68  and  _69
REMARK   28  A    between atoms: _68  and  _71
REMARK   29  A    between atoms: _71  and  _72
REMARK   30  A    between atoms: _72  and  _73
REMARK   31  A    between atoms: _73  and  _74
REMARK   32  A    between atoms: _74  and  _75
REMARK   33  A    between atoms: _79  and  _81
REMARK   34  A    between atoms: _81  and  _82
REMARK   35  A    between atoms: _81  and  _84
REMARK   36  A    between atoms: _84  and  _85
REMARK   37  A    between atoms: _85  and  _86
REMARK   38  A    between atoms: _89  and  _91
REMARK   39  A    between atoms: _91  and  _92
REMARK   40  A    between atoms: _91  and  _94
REMARK   41  A    between atoms: _94  and  _95
REMARK   42  A    between atoms: _98  and  _100
REMARK   43  A    between atoms: _100  and  _101
REMARK   44  A    between atoms: _103  and  _105
REMARK   45  A    between atoms: _105  and  _106
REMARK   46  A    between atoms: _109  and  _111
REMARK   47  A    between atoms: _111  and  _112
REMARK   48  A    between atoms: _111  and  _114
REMARK   49  A    between atoms: _114  and  _115
REMARK   50  A    between atoms: _120  and  _121
REMARK   51  A    between atoms: _123  and  _125
REMARK   52  A    between atoms: _125  and  _126
REMARK   53  A    between atoms: _125  and  _128
REMARK   54  A    between atoms: _130  and  _132
REMARK   55  A    between atoms: _132  and  _133
REMARK   56  A    between atoms: _135  and  _137
REMARK   57  A    between atoms: _137  and  _138
REMARK   58  A    between atoms: _137  and  _140
REMARK   59  A    between atoms: _140  and  _141
REMARK   60  A    between atoms: _144  and  _146
REMARK   61  A    between atoms: _146  and  _147
REMARK   62  A    between atoms: _146  and  _149
REMARK   63  A    between atoms: _150  and  _151
REMARK   64  A    between atoms: _153  and  _155
REMARK   65  A    between atoms: _155  and  _156
REMARK   66  A    between atoms: _155  and  _158
REMARK   67  A    between atoms: _158  and  _159
REMARK   68  A    between atoms: _159  and  _160
REMARK   69  A    between atoms: _163  and  _165
REMARK   70  A    between atoms: _165  and  _166
REMARK   71  A    between atoms: _165  and  _168
REMARK   72  A    between atoms: _168  and  _169
REMARK   73  A    between atoms: _172  and  _174
REMARK   74  A    between atoms: _174  and  _175
REMARK   75  A    between atoms: _174  and  _177
REMARK   76  A    between atoms: _177  and  _178
REMARK   77  A    between atoms: _184  and  _185
REMARK   78  A    between atoms: _190  and  _192
REMARK   79  A    between atoms: _192  and  _193
REMARK   80  A    between atoms: _192  and  _195
REMARK   81  A    between atoms: _195  and  _196
REMARK   82  A    between atoms: _199  and  _201
REMARK   83  A    between atoms: _201  and  _202
REMARK   84  A    between atoms: _201  and  _204
REMARK   85  A    between atoms: _206  and  _208
REMARK   86  A    between atoms: _208  and  _209
REMARK   87  A    between atoms: _212  and  _214
REMARK   88  A    between atoms: _214  and  _215
REMARK   89  A    between atoms: _214  and  _217
REMARK   90  A    between atoms: _217  and  _218
REMARK   91  A    between atoms: _221  and  _223
REMARK   92  A    between atoms: _223  and  _224
REMARK   93  A    between atoms: _223  and  _226
REMARK   94  A    between atoms: _226  and  _227
REMARK   95  A    between atoms: _230  and  _232
REMARK   96  A    between atoms: _232  and  _233
REMARK   97  A    between atoms: _232  and  _235
REMARK   98  A    between atoms: _235  and  _236
REMARK   99  A    between atoms: _241  and  _243
REMARK  100  A    between atoms: _243  and  _244
REMARK  101  A    between atoms: _246  and  _248
REMARK  102  A    between atoms: _248  and  _249
REMARK  103  A    between atoms: _252  and  _254
REMARK  104  A    between atoms: _254  and  _255
REMARK  105  A    between atoms: _254  and  _257
REMARK  106  A    between atoms: _257  and  _258
REMARK  107  A    between atoms: _260  and  _262
REMARK  108  A    between atoms: _262  and  _263
REMARK  109  A    between atoms: _262  and  _265
REMARK  110  A    between atoms: _265  and  _266
REMARK  111  A    between atoms: _266  and  _267
REMARK  112  A    between atoms: _272  and  _274
REMARK  113  A    between atoms: _274  and  _275
REMARK  114  A    between atoms: _274  and  _277
REMARK  115  A    between atoms: _277  and  _278
REMARK  116  A    between atoms: _281  and  _283
REMARK  117  A    between atoms: _283  and  _284
REMARK  118  A    between atoms: _283  and  _286
REMARK  119  A    between atoms: _286  and  _287
REMARK  120  A    between atoms: _290  and  _292
REMARK  121  A    between atoms: _292  and  _293
REMARK  122  A    between atoms: _292  and  _295
REMARK  123  A    between atoms: _295  and  _296
REMARK  124  A    between atoms: _299  and  _301
REMARK  125  A    between atoms: _301  and  _302
REMARK  126  A    between atoms: _301  and  _304
REMARK  127  A    between atoms: _304  and  _305
REMARK  128  A    between atoms: _311  and  _313
REMARK  129  A    between atoms: _313  and  _314
REMARK  130  A    between atoms: _313  and  _316
REMARK  131  A    between atoms: _316  and  _317
REMARK  132  A    between atoms: _320  and  _322
REMARK  133  A    between atoms: _322  and  _323
REMARK  134  A    between atoms: _322  and  _325
REMARK  135  A    between atoms: _325  and  _326
REMARK  136  A    between atoms: _326  and  _327
REMARK  137  A    between atoms: _327  and  MG_517
REMARK  138  A    between atoms: _329  and  _331
REMARK  139  A    between atoms: _331  and  _332
REMARK  140  A    between atoms: _331  and  _334
REMARK  141  A    between atoms: _334  and  _335
REMARK  142  A    between atoms: _340  and  _342
REMARK  143  A    between atoms: _342  and  _343
REMARK  144  A    between atoms: _342  and  _345
REMARK  145  A    between atoms: _345  and  _346
REMARK  146  A    between atoms: _356  and  _358
REMARK  147  A    between atoms: _358  and  _359
REMARK  148  A    between atoms: _358  and  _361
REMARK  149  A    between atoms: _361  and  _362
REMARK  150  A    between atoms: _362  and  _363
REMARK  151  A    between atoms: _363  and  _364
REMARK  152  A    between atoms: _364  and  _365
REMARK  153  A    between atoms: _369  and  _371
REMARK  154  A    between atoms: _371  and  _372
REMARK  155  A    between atoms: _371  and  _374
REMARK  156  A    between atoms: _374  and  _375
REMARK  157  A    between atoms: _378  and  _380
REMARK  158  A    between atoms: _380  and  _381
REMARK  159  A    between atoms: _380  and  _383
REMARK  160  A    between atoms: _383  and  _384
REMARK  161  A    between atoms: _384  and  _385
REMARK  162  A    between atoms: _385  and  _386
REMARK  163  A    between atoms: _395  and  _397
REMARK  164  A    between atoms: _397  and  _398
REMARK  165  A    between atoms: _397  and  _400
REMARK  166  A    between atoms: _400  and  _401
REMARK  167  A    between atoms: _406  and  _407
REMARK  168  A    between atoms: _409  and  _411
REMARK  169  A    between atoms: _411  and  _412
REMARK  170  A    between atoms: _411  and  _414
REMARK  171  A    between atoms: _414  and  _415
REMARK  172  A    between atoms: _418  and  _420
REMARK  173  A    between atoms: _420  and  _421
REMARK  174  A    between atoms: _420  and  _423
REMARK  175  A    between atoms: _423  and  _424
REMARK  176  A    between atoms: _427  and  _429
REMARK  177  A    between atoms: _429  and  _430
REMARK  178  A    between atoms: _429  and  _432
REMARK  179  A    between atoms: _432  and  _433
REMARK  180  A    between atoms: _438  and  _440
REMARK  181  A    between atoms: _440  and  _441
REMARK  182  A    between atoms: _440  and  _443
REMARK  183  A    between atoms: _446  and  _448
REMARK  184  A    between atoms: _448  and  _449
REMARK  185  A    between atoms: _448  and  _451
REMARK  186  A    between atoms: _455  and  _456
REMARK  187  A    between atoms: _461  and  _463
REMARK  188  A    between atoms: _463  and  _464
REMARK  189  A    between atoms: _466  and  _468
REMARK  190  A    between atoms: _468  and  _469
REMARK  191  A    between atoms: _468  and  _471
REMARK  192  A    between atoms: _471  and  _472
REMARK  193  A    between atoms: _475  and  _477
REMARK  194  A    between atoms: _477  and  _478
REMARK  195  A    between atoms: _477  and  _480
REMARK  196  A    between atoms: _480  and  _481
REMARK  197  A    between atoms: _484  and  _486
REMARK  198  A    between atoms: _486  and  _487
REMARK  199  A    between atoms: _486  and  _489
REMARK  200  A    between atoms: _489  and  _490
REMARK  201  A    between atoms: _490  and  _491
REMARK  202  A    between atoms: _494  and  _496
REMARK  203  A    between atoms: _496  and  _497
REMARK  204  A    between atoms: _496  and  _499
REMARK  205  A    between atoms: _499  and  _500
REMARK  206  A    between atoms: _505  and  _506
REMARK  207  A    between atoms: _508  and  _510
REMARK  208  A    between atoms: _510  and  _511
REMARK  209  A    between atoms: _510  and  _513
REMARK  210  A    between atoms: _513  and  _514
REMARK  211  A    between atoms: _514  and  _515
REMARK                            x       y       z     vdW  Elec       q    Type
REMARK                         _______ _______ _______ _____ _____    ______ ____
ROOT
ATOM      1  CA  TRP A   5      35.465   0.971  -7.186  0.00  0.00    +0.000 C 
ENDROOT
BRANCH   1   4
ATOM      2  C   HIS A   4      33.829  -0.469  -8.158  0.00  0.00    +0.000 C 
ATOM      3  O   HIS A   4      34.002  -1.297  -7.251  0.00  0.00    +0.000 OA
ATOM      4  N   TRP A   5      34.596   0.612  -8.278  0.00  0.00    +0.000 N 
ATOM      5  H   TRP A   5      34.569   1.187  -9.144  0.00  0.00    +0.000 HD
BRANCH   2   6
ATOM      6  CA  HIS A   4      32.878  -0.802  -9.335  0.00  0.00    +0.000 C 
BRANCH   6   8
ATOM      7  C   UNK A   3      31.651  -2.909  -8.978  0.00  0.00    +0.000 C 
ATOM      8  N   HIS A   4      31.723  -1.589  -8.829  0.00  0.00    +0.000 N 
ATOM      9  H   HIS A   4      30.948  -1.093  -8.344  0.00  0.00    +0.000 HD
ATOM     10  O   UNK A   3      32.524  -3.584  -9.553  0.00  0.00    +0.000 OA
BRANCH   7  11
ATOM     11  C   UNK A   3      30.397  -3.547  -8.342  0.00  0.00    +0.000 C 
BRANCH  11  14
ATOM     12  C   LEU A   2      28.236  -2.764  -7.560  0.00  0.00    +0.000 C 
ATOM     13  O   LEU A   2      28.236  -3.633  -6.671  0.00  0.00    +0.000 OA
ATOM     14  N   UNK A   3      29.261  -2.675  -8.432  0.00  0.00    +0.000 N 
ATOM     15  H   UNK A   3      29.227  -1.959  -9.186  0.00  0.00    +0.000 HD
BRANCH  12  16
ATOM     16  CA  LEU A   2      27.130  -1.836  -7.760  0.00  0.00    +0.000 C 
BRANCH  16  18
ATOM     17  C   PHE A   1      25.354  -2.614  -9.311  0.00  0.00    +0.000 C 
ATOM     18  N   LEU A   2      25.882  -2.543  -8.088  0.00  0.00    +0.000 N 
ATOM     19  H   LEU A   2      25.377  -3.020  -7.314  0.00  0.00    +0.000 HD
ATOM     20  O   PHE A   1      25.881  -2.085 -10.299  0.00  0.00    +0.000 OA
BRANCH  17  21
ATOM     21  CA  PHE A   1      24.073  -3.405  -9.522  0.00  0.00    +0.000 C 
BRANCH  21  22
ATOM     22  N   PHE A   1      23.041  -2.505 -10.025  0.00  0.00    +0.000 NA
ATOM     23  H   PHE A   1      23.061  -2.278 -11.040  0.00  0.00    +0.000 HD
ENDBRANCH  21  22
BRANCH  21  24
ATOM     24  CB  PHE A   1      24.262  -4.700 -10.350  0.00  0.00    +0.000 C 
BRANCH  24  25
ATOM     25  CG  PHE A   1      25.184  -5.634  -9.805  0.00  0.00    +0.000 A 
ATOM     26  CD2 PHE A   1      24.951  -6.258  -8.566  0.00  0.00    +0.000 A 
ATOM     27  CE2 PHE A   1      25.859  -7.096  -8.040  0.00  0.00    +0.000 A 
ATOM     28  CZ  PHE A   1      27.013  -7.423  -8.684  0.00  0.00    +0.000 A 
ATOM     29  CE1 PHE A   1      27.268  -6.879  -9.908  0.00  0.00    +0.000 A 
ATOM     30  CD1 PHE A   1      26.372  -5.979 -10.456  0.00  0.00    +0.000 A 
ENDBRANCH  24  25
ENDBRANCH  21  24
ENDBRANCH  17  21
ENDBRANCH  16  18
BRANCH  16  31
ATOM     31  CB  LEU A   2      26.888  -0.998  -6.485  0.00  0.00    +0.000 C 
BRANCH  31  32
ATOM     32  CG  LEU A   2      25.865   0.044  -6.583  0.00  0.00    +0.000 C 
ATOM     33  CD2 LEU A   2      26.155   1.301  -5.679  0.00  0.00    +0.000 C 
ATOM     34  CD1 LEU A   2      24.474  -0.419  -6.151  0.00  0.00    +0.000 C 
ENDBRANCH  31  32
ENDBRANCH  16  31
ENDBRANCH  12  16
ENDBRANCH  11  14
BRANCH  11  35
ATOM     35  C   UNK A   3      30.126  -4.886  -9.048  0.00  0.00    +0.000 C 
BRANCH  35  36
ATOM     36  C   UNK A   3      31.153  -5.942  -8.745  0.00  0.00    +0.000 C 
ATOM     37  O   UNK A   3      31.249  -6.820  -9.678  0.00  0.00    +0.000 OA
BRANCH  36  38
ATOM     38  O   UNK A   3      31.814  -6.126  -7.687  0.00  0.00    +0.000 OA
BRANCH  38  39
ATOM     39 MG   UNK A   3      32.900  -7.510  -6.914  0.00  0.00    +0.000 Mg
ATOM     40  O   UNK A   3      32.951  -8.676  -8.597  0.00  0.00    +0.000 OA
ENDBRANCH  38  39
ENDBRANCH  36  38
ENDBRANCH  35  36
ENDBRANCH  11  35
ENDBRANCH   7  11
ENDBRANCH   6   8
BRANCH   6  41
ATOM     41  CB  HIS A   4      32.437   0.337 -10.204  0.00  0.00    +0.000 C 
BRANCH  41  42
ATOM     42  CG  HIS A   4      31.591   1.374  -9.520  0.00  0.00    +0.000 A 
ATOM     43  ND1 HIS A   4      30.774   1.084  -8.436  0.00  0.00    +0.000 NA
ATOM     44  CE1 HIS A   4      30.143   2.184  -8.081  0.00  0.00    +0.000 A 
ATOM     45  NE2 HIS A   4      30.530   3.182  -8.873  0.00  0.00    +0.000 NA
ATOM     46  CD2 HIS A   4      31.407   2.683  -9.791  0.00  0.00    +0.000 A 
ENDBRANCH  41  42
ENDBRANCH   6  41
ENDBRANCH   2   6
ENDBRANCH   1   4
BRANCH   1  47
ATOM     47  C   TRP A   5      34.618   1.206  -5.892  0.00  0.00    +0.000 C 
ATOM     48  N   LYS A   6      35.084   0.582  -4.812  0.00  0.00    +0.000 N 
ATOM     49  H   LYS A   6      36.021   0.132  -4.841  0.00  0.00    +0.000 HD
ATOM     50  O   TRP A   5      33.602   1.870  -5.923  0.00  0.00    +0.000 OA
BRANCH  48  51
ATOM     51  CA  LYS A   6      34.294   0.524  -3.594  0.00  0.00    +0.000 C 
BRANCH  51  52
ATOM     52  C   LYS A   6      34.082   1.897  -2.978  0.00  0.00    +0.000 C 
ATOM     53  O   LYS A   6      33.044   2.148  -2.390  0.00  0.00    +0.000 OA
ATOM     54  N   ASP A   7      35.037   2.824  -3.167  0.00  0.00    +0.000 N 
ATOM     55  H   ASP A   7      35.925   2.576  -3.647  0.00  0.00    +0.000 HD
BRANCH  54  56
ATOM     56  CA  ASP A   7      34.809   4.182  -2.689  0.00  0.00    +0.000 C 
BRANCH  56  57
ATOM     57  C   ASP A   7      33.817   5.043  -3.470  0.00  0.00    +0.000 C 
ATOM     58  O   ASP A   7      33.509   6.156  -3.124  0.00  0.00    +0.000 OA
ATOM     59  N   ARG A   8      33.337   4.519  -4.608  0.00  0.00    +0.000 N 
ATOM     60  H   ARG A   8      33.697   3.593  -4.917  0.00  0.00    +0.000 HD
BRANCH  59  61
ATOM     61  CA  ARG A   8      32.375   5.158  -5.400  0.00  0.00    +0.000 C 
BRANCH  61  62
ATOM     62  C   ARG A   8      30.957   4.714  -5.182  0.00  0.00    +0.000 C 
ATOM     63  N   TYR A   9      30.755   3.674  -4.366  0.00  0.00    +0.000 N 
ATOM     64  H   TYR A   9      31.556   3.191  -3.912  0.00  0.00    +0.000 HD
ATOM     65  O   ARG A   8      30.007   5.351  -5.599  0.00  0.00    +0.000 OA
BRANCH  63  66
ATOM     66  CA  TYR A   9      29.363   3.226  -4.124  0.00  0.00    +0.000 C 
BRANCH  66  67
ATOM     67  C   TYR A   9      28.474   4.297  -3.516  0.00  0.00    +0.000 C 
ATOM     68  O   TYR A   9      27.390   4.607  -3.969  0.00  0.00    +0.000 OA
ENDBRANCH  66  67
BRANCH  66  69
ATOM     69  CB  TYR A   9      29.257   1.969  -3.237  0.00  0.00    +0.000 C 
BRANCH  69  70
ATOM     70  CG  TYR A   9      29.629   0.628  -3.816  0.00  0.00    +0.000 A 
ATOM     71  CD2 TYR A   9      29.128  -0.543  -3.202  0.00  0.00    +0.000 A 
ATOM     72  CE2 TYR A   9      29.507  -1.790  -3.634  0.00  0.00    +0.000 A 
ATOM     73  CZ  TYR A   9      30.409  -1.895  -4.624  0.00  0.00    +0.000 A 
ATOM     74  CE1 TYR A   9      30.924  -0.743  -5.253  0.00  0.00    +0.000 A 
ATOM     75  CD1 TYR A   9      30.552   0.489  -4.786  0.00  0.00    +0.000 A 
BRANCH  73  76
ATOM     76  OH  TYR A   9      30.839  -3.128  -4.993  0.00  0.00    +0.000 OA
ATOM     77  HH  TYR A   9      31.266  -3.573  -4.218  0.00  0.00    +0.000 HD
ENDBRANCH  73  76
ENDBRANCH  69  70
ENDBRANCH  66  69
ENDBRANCH  63  66
ENDBRANCH  61  62
BRANCH  61  78
ATOM     78  CB  ARG A   8      32.687   4.920  -6.898  0.00  0.00    +0.000 C 
BRANCH  78  79
ATOM     79  CG  ARG A   8      34.000   5.486  -7.408  0.00  0.00    +0.000 C 
BRANCH  79  80
ATOM     80  CD  ARG A   8      34.091   7.004  -7.250  0.00  0.00    +0.000 C 
BRANCH  80  81
ATOM     81  NE  ARG A   8      32.872   7.694  -7.632  0.00  0.00    +0.330 N 
ATOM     82  CZ  ARG A   8      32.658   8.992  -7.426  0.00  0.00    +0.000 C 
ATOM     83  NH2 ARG A   8      33.588   9.722  -6.892  0.00  0.00    +0.330 N 
ATOM     84 HH21 ARG A   8      34.497   9.293  -6.626  0.00  0.00    +0.000 HD
ATOM     85 HH22 ARG A   8      33.424  10.736  -6.730  0.00  0.00    +0.000 HD
ATOM     86  NH1 ARG A   8      31.505   9.531  -7.720  0.00  0.00    +0.330 N 
ATOM     87 HH11 ARG A   8      31.348  10.546  -7.555  0.00  0.00    +0.000 HD
ATOM     88 HH12 ARG A   8      30.744   8.945  -8.119  0.00  0.00    +0.000 HD
ATOM     89  HE  ARG A   8      32.121   7.142  -8.094  0.00  0.00    +0.000 HD
ENDBRANCH  80  81
ENDBRANCH  79  80
ENDBRANCH  78  79
ENDBRANCH  61  78
ENDBRANCH  59  61
ENDBRANCH  56  57
BRANCH  56  90
ATOM     90  CB  ASP A   7      36.175   4.835  -2.507  0.00  0.00    +0.000 C 
BRANCH  90  91
ATOM     91  CG  ASP A   7      36.890   5.134  -3.752  0.00  0.00    +0.000 C 
ATOM     92  OD2 ASP A   7      37.959   5.816  -3.660  0.00  0.00    +0.000 OA
ATOM     93  OD1 ASP A   7      36.518   4.740  -4.837  0.00  0.00    +0.000 OA
ENDBRANCH  90  91
ENDBRANCH  56  90
ENDBRANCH  54  56
ENDBRANCH  51  52
BRANCH  51  94
ATOM     94  CB  LYS A   6      34.862  -0.478  -2.617  0.00  0.00    +0.000 C 
BRANCH  94  95
ATOM     95  CG  LYS A   6      35.149  -1.866  -3.176  0.00  0.00    +0.000 C 
BRANCH  95  96
ATOM     96  CD  LYS A   6      34.007  -2.423  -4.081  0.00  0.00    +0.000 C 
BRANCH  96  97
ATOM     97  CE  LYS A   6      34.531  -3.561  -4.903  0.00  0.00    +0.000 C 
BRANCH  97  98
ATOM     98  NZ  LYS A   6      33.563  -3.868  -6.025  0.00  0.00    +0.000 N 
ATOM     99  HZ1 LYS A   6      32.640  -4.129  -5.623  0.00  0.00    +0.000 HD
ATOM    100  HZ2 LYS A   6      33.931  -4.658  -6.592  0.00  0.00    +0.000 HD
ATOM    101  HZ3 LYS A   6      33.455  -3.027  -6.628  0.00  0.00    +0.000 HD
ENDBRANCH  97  98
ENDBRANCH  96  97
ENDBRANCH  95  96
ENDBRANCH  94  95
ENDBRANCH  51  94
ENDBRANCH  48  51
ENDBRANCH   1  47
BRANCH   1 102
ATOM    102  CB  TRP A   5      36.276   2.226  -7.606  0.00  0.00    +0.000 C 
BRANCH 102 103
ATOM    103  CG  TRP A   5      37.258   1.928  -8.815  0.00  0.00    +0.000 A 
ATOM    104  CD1 TRP A   5      37.907   0.744  -9.093  0.00  0.00    +0.000 A 
ATOM    105  NE1 TRP A   5      38.651   0.853 -10.245  0.00  0.00    +0.000 N 
ATOM    106  HE1 TRP A   5      39.243   0.106 -10.661  0.00  0.00    +0.000 HD
ATOM    107  CE2 TRP A   5      38.480   2.105 -10.747  0.00  0.00    +0.000 A 
ATOM    108  CZ2 TRP A   5      39.078   2.698 -11.878  0.00  0.00    +0.000 A 
ATOM    109  CH2 TRP A   5      38.776   4.016 -12.138  0.00  0.00    +0.000 A 
ATOM    110  CZ3 TRP A   5      37.905   4.747 -11.297  0.00  0.00    +0.000 A 
ATOM    111  CE3 TRP A   5      37.314   4.138 -10.163  0.00  0.00    +0.000 A 
ATOM    112  CD2 TRP A   5      37.624   2.819  -9.878  0.00  0.00    +0.000 A 
ENDBRANCH 102 103
ENDBRANCH   1 102
TORSDOF 44
REMARK  Name = ../refined-set-2016/3ozt/3ozt_pocket.pdb
REMARK  211 active torsions:
REMARK  status: ('A' for Active; 'I' for Inactive)
REMARK    1  A    between atoms: _1  and  _3
REMARK    2  A    between atoms: _3  and  _4
REMARK    3  A    between atoms: _3  and  _6
REMARK    4  A    between atoms: _6  and  _7
REMARK    5  A    between atoms: _7  and  _8
REMARK    6  A    between atoms: _11  and  _13
REMARK    7  A    between atoms: _13  and  _14
REMARK    8  A    between atoms: _13  and  _16
REMARK    9  A    between atoms: _16  and  _17
REMARK   10  A    between atoms: _27  and  _29
REMARK   11  A    between atoms: _29  and  _30
REMARK   12  A    between atoms: _33  and  _35
REMARK   13  A    between atoms: _35  and  _36
REMARK   14  A    between atoms: _35  and  _38
REMARK   15  A    between atoms: _38  and  _39
REMARK   16  A    between atoms: _39  and  _40
REMARK   17  A    between atoms: _42  and  _44
REMARK   18  A    between atoms: _44  and  _45
REMARK   19  A    between atoms: _44  and  _47
REMARK   20  A    between atoms: _47  and  _48
REMARK   21  A    between atoms: _53  and  _55
REMARK   22  A    between atoms: _55  and  _56
REMARK   23  A    between atoms: _55  and  _58
REMARK   24  A    between atoms: _61  and  _63
REMARK   25  A    between atoms: _63  and  _64
REMARK   26  A    between atoms: _66  and  _68
REMARK   27  A    between atoms: _68  and  _69
REMARK   28  A    between atoms: _68  and  _71
REMARK   29  A    between atoms: _71  and  _72
REMARK   30  A    between atoms: _72  and  _73
REMARK   31  A    between atoms: _73  and  _74
REMARK   32  A    between atoms: _74  and  _75
REMARK   33  A    between atoms: _79  and  _81
REMARK   34  A    between atoms: _81  and  _82
REMARK   35  A    between atoms: _81  and  _84
REMARK   36  A    between atoms: _84  and  _85
REMARK   37  A    between atoms: _85  and  _86
REMARK   38  A    between atoms: _89  and  _91
REMARK   39  A    between atoms: _91  and  _92
REMARK   40  A    between atoms: _91  and  _94
REMARK   41  A    between atoms: _94  and  _95
REMARK   42  A    between atoms: _98  and  _100
REMARK   43  A    between atoms: _100  and  _101
REMARK   44  A    between atoms: _103  and  _105
REMARK   45  A    between atoms: _105  and  _106
REMARK   46  A    between atoms: _109  and  _111
REMARK   47  A    between atoms: _111  and  _112
REMARK   48  A    between atoms: _111  and  _114
REMARK   49  A    between atoms: _114  and  _115
REMARK   50  A    between atoms: _120  and  _121
REMARK   51  A    between atoms: _123  and  _125
REMARK   52  A    between atoms: _125  and  _126
REMARK   53  A    between atoms: _125  and  _128
REMARK   54  A    between atoms: _130  and  _132
REMARK   55  A    between atoms: _132  and  _133
REMARK   56  A    between atoms: _135  and  _137
REMARK   57  A    between atoms: _137  and  _138
REMARK   58  A    between atoms: _137  and  _140
REMARK   59  A    between atoms: _140  and  _141
REMARK   60  A    between atoms: _144  and  _146
REMARK   61  A    between atoms: _146  and  _147
REMARK   62  A    between atoms: _146  and  _149
REMARK   63  A    between atoms: _150  and  _151
REMARK   64  A    between atoms: _153  and  _155
REMARK   65  A    between atoms: _155  and  _156
REMARK   66  A    between atoms: _155  and  _158
REMARK   67  A    between atoms: _158  and  _159
REMARK   68  A    between atoms: _159  and  _160
REMARK   69  A    between atoms: _163  and  _165
REMARK   70  A    between atoms: _165  and  _166
REMARK   71  A    between atoms: _165  and  _168
REMARK   72  A    between atoms: _168  and  _169
REMARK   73  A    between atoms: _172  and  _174
REMARK   74  A    between atoms: _174  and  _175
REMARK   75  A    between atoms: _174  and  _177
REMARK   76  A    between atoms: _177  and  _178
REMARK   77  A    between atoms: _184  and  _185
REMARK   78  A    between atoms: _190  and  _192
REMARK   79  A    between atoms: _192  and  _193
REMARK   80  A    between atoms: _192  and  _195
REMARK   81  A    between atoms: _195  and  _196
REMARK   82  A    between atoms: _199  and  _201
REMARK   83  A    between atoms: _201  and  _202
REMARK   84  A    between atoms: _201  and  _204
REMARK   85  A    between atoms: _206  and  _208
REMARK   86  A    between atoms: _208  and  _209
REMARK   87  A    between atoms: _212  and  _214
REMARK   88  A    between atoms: _214  and  _215
REMARK   89  A    between atoms: _214  and  _217
REMARK   90  A    between atoms: _217  and  _218
REMARK   91  A    between atoms: _221  and  _223
REMARK   92  A    between atoms: _223  and  _224
REMARK   93  A    between atoms: _223  and  _226
REMARK   94  A    between atoms: _226  and  _227
REMARK   95  A    between atoms: _230  and  _232
REMARK   96  A    between atoms: _232  and  _233
REMARK   97  A    between atoms: _232  and  _235
REMARK   98  A    between atoms: _235  and  _236
REMARK   99  A    between atoms: _241  and  _243
REMARK  100  A    between atoms: _243  and  _244
REMARK  101  A    between atoms: _246  and  _248
REMARK  102  A    between atoms: _248  and  _249
REMARK  103  A    between atoms: _252  and  _254
REMARK  104  A    between atoms: _254  and  _255
REMARK  105  A    between atoms: _254  and  _257
REMARK  106  A    between atoms: _257  and  _258
REMARK  107  A    between atoms: _260  and  _262
REMARK  108  A    between atoms: _262  and  _263
REMARK  109  A    between atoms: _262  and  _265
REMARK  110  A    between atoms: _265  and  _266
REMARK  111  A    between atoms: _266  and  _267
REMARK  112  A    between atoms: _272  and  _274
REMARK  113  A    between atoms: _274  and  _275
REMARK  114  A    between atoms: _274  and  _277
REMARK  115  A    between atoms: _277  and  _278
REMARK  116  A    between atoms: _281  and  _283
REMARK  117  A    between atoms: _283  and  _284
REMARK  118  A    between atoms: _283  and  _286
REMARK  119  A    between atoms: _286  and  _287
REMARK  120  A    between atoms: _290  and  _292
REMARK  121  A    between atoms: _292  and  _293
REMARK  122  A    between atoms: _292  and  _295
REMARK  123  A    between atoms: _295  and  _296
REMARK  124  A    between atoms: _299  and  _301
REMARK  125  A    between atoms: _301  and  _302
REMARK  126  A    between atoms: _301  and  _304
REMARK  127  A    between atoms: _304  and  _305
REMARK  128  A    between atoms: _311  and  _313
REMARK  129  A    between atoms: _313  and  _314
REMARK  130  A    between atoms: _313  and  _316
REMARK  131  A    between atoms: _316  and  _317
REMARK  132  A    between atoms: _320  and  _322
REMARK  133  A    between atoms: _322  and  _323
REMARK  134  A    between atoms: _322  and  _325
REMARK  135  A    between atoms: _325  and  _326
REMARK  136  A    between atoms: _326  and  _327
REMARK  137  A    between atoms: _327  and  MG_517
REMARK  138  A    between atoms: _329  and  _331
REMARK  139  A    between atoms: _331  and  _332
REMARK  140  A    between atoms: _331  and  _334
REMARK  141  A    between atoms: _334  and  _335
REMARK  142  A    between atoms: _340  and  _342
REMARK  143  A    between atoms: _342  and  _343
REMARK  144  A    between atoms: _342  and  _345
REMARK  145  A    between atoms: _345  and  _346
REMARK  146  A    between atoms: _356  and  _358
REMARK  147  A    between atoms: _358  and  _359
REMARK  148  A    between atoms: _358  and  _361
REMARK  149  A    between atoms: _361  and  _362
REMARK  150  A    between atoms: _362  and  _363
REMARK  151  A    between atoms: _363  and  _364
REMARK  152  A    between atoms: _364  and  _365
REMARK  153  A    between atoms: _369  and  _371
REMARK  154  A    between atoms: _371  and  _372
REMARK  155  A    between atoms: _371  and  _374
REMARK  156  A    between atoms: _374  and  _375
REMARK  157  A    between atoms: _378  and  _380
REMARK  158  A    between atoms: _380  and  _381
REMARK  159  A    between atoms: _380  and  _383
REMARK  160  A    between atoms: _383  and  _384
REMARK  161  A    between atoms: _384  and  _385
REMARK  162  A    between atoms: _385  and  _386
REMARK  163  A    between atoms: _395  and  _397
REMARK  164  A    between atoms: _397  and  _398
REMARK  165  A    between atoms: _397  and  _400
REMARK  166  A    between atoms: _400  and  _401
REMARK  167  A    between atoms: _406  and  _407
REMARK  168  A    between atoms: _409  and  _411
REMARK  169  A    between atoms: _411  and  _412
REMARK  170  A    between atoms: _411  and  _414
REMARK  171  A    between atoms: _414  and  _415
REMARK  172  A    between atoms: _418  and  _420
REMARK  173  A    between atoms: _420  and  _421
REMARK  174  A    between atoms: _420  and  _423
REMARK  175  A    between atoms: _423  and  _424
REMARK  176  A    between atoms: _427  and  _429
REMARK  177  A    between atoms: _429  and  _430
REMARK  178  A    between atoms: _429  and  _432
REMARK  179  A    between atoms: _432  and  _433
REMARK  180  A    between atoms: _438  and  _440
REMARK  181  A    between atoms: _440  and  _441
REMARK  182  A    between atoms: _440  and  _443
REMARK  183  A    between atoms: _446  and  _448
REMARK  184  A    between atoms: _448  and  _449
REMARK  185  A    between atoms: _448  and  _451
REMARK  186  A    between atoms: _455  and  _456
REMARK  187  A    between atoms: _461  and  _463
REMARK  188  A    between atoms: _463  and  _464
REMARK  189  A    between atoms: _466  and  _468
REMARK  190  A    between atoms: _468  and  _469
REMARK  191  A    between atoms: _468  and  _471
REMARK  192  A    between atoms: _471  and  _472
REMARK  193  A    between atoms: _475  and  _477
REMARK  194  A    between atoms: _477  and  _478
REMARK  195  A    between atoms: _477  and  _480
REMARK  196  A    between atoms: _480  and  _481
REMARK  197  A    between atoms: _484  and  _486
REMARK  198  A    between atoms: _486  and  _487
REMARK  199  A    between atoms: _486  and  _489
REMARK  200  A    between atoms: _489  and  _490
REMARK  201  A    between atoms: _490  and  _491
REMARK  202  A    between atoms: _494  and  _496
REMARK  203  A    between atoms: _496  and  _497
REMARK  204  A    between atoms: _496  and  _499
REMARK  205  A    between atoms: _499  and  _500
REMARK  206  A    between atoms: _505  and  _506
REMARK  207  A    between atoms: _508  and  _510
REMARK  208  A    between atoms: _510  and  _511
REMARK  209  A    between atoms: _510  and  _513
REMARK  210  A    between atoms: _513  and  _514
REMARK  211  A    between atoms: _514  and  _515
REMARK                            x       y       z     vdW  Elec       q    Type
REMARK                         _______ _______ _______ _____ _____    ______ ____
ROOT
ATOM      1  CA  ASP A   1      27.326   7.391  -6.969  0.00  0.00    +0.144 C 
ENDROOT
BRANCH   1   2
ATOM      2  N   ASP A   1      28.178   7.650  -5.826  0.00  0.00    -0.239 NA
ATOM      3  H   ASP A   1      28.844   6.927  -5.486  0.00  0.00    +0.142 HD
ENDBRANCH   1   2
BRANCH   1   4
ATOM      4  C   ASP A   1      25.875   7.187  -6.625  0.00  0.00    +0.225 C 
ATOM      5  O   ASP A   1      24.961   7.550  -7.367  0.00  0.00    -0.287 OA
ENDBRANCH   1   4
BRANCH   1   6
ATOM      6  CB  ASP A   1      27.865   6.254  -7.798  0.00  0.00    +0.139 C 
BRANCH   6   7
ATOM      7  CG  ASP A   1      29.118   6.628  -8.615  0.00  0.00    +0.367 C 
ATOM      8  OD2 ASP A   1      29.466   7.803  -8.726  0.00  0.00    -0.246 OA
ATOM      9  OD1 ASP A   1      29.805   5.722  -9.134  0.00  0.00    -0.246 OA
ENDBRANCH   6   7
ENDBRANCH   1   6
TORSDOF 4
REMARK  Name = ../refined-set-2016/3ozt/3ozt_pocket.pdb
REMARK  211 active torsions:
REMARK  status: ('A' for Active; 'I' for Inactive)
REMARK    1  A    between atoms: _1  and  _3
REMARK    2  A    between atoms: _3  and  _4
REMARK    3  A    between atoms: _3  and  _6
REMARK    4  A    between atoms: _6  and  _7
REMARK    5  A    between atoms: _7  and  _8
REMARK    6  A    between atoms: _11  and  _13
REMARK    7  A    between atoms: _13  and  _14
REMARK    8  A    between atoms: _13  and  _16
REMARK    9  A    between atoms: _16  and  _17
REMARK   10  A    between atoms: _27  and  _29
REMARK   11  A    between atoms: _29  and  _30
REMARK   12  A    between atoms: _33  and  _35
REMARK   13  A    between atoms: _35  and  _36
REMARK   14  A    between atoms: _35  and  _38
REMARK   15  A    between atoms: _38  and  _39
REMARK   16  A    between atoms: _39  and  _40
REMARK   17  A    between atoms: _42  and  _44
REMARK   18  A    between atoms: _44  and  _45
REMARK   19  A    between atoms: _44  and  _47
REMARK   20  A    between atoms: _47  and  _48
REMARK   21  A    between atoms: _53  and  _55
REMARK   22  A    between atoms: _55  and  _56
REMARK   23  A    between atoms: _55  and  _58
REMARK   24  A    between atoms: _61  and  _63
REMARK   25  A    between atoms: _63  and  _64
REMARK   26  A    between atoms: _66  and  _68
REMARK   27  A    between atoms: _68  and  _69
REMARK   28  A    between atoms: _68  and  _71
REMARK   29  A    between atoms: _71  and  _72
REMARK   30  A    between atoms: _72  and  _73
REMARK   31  A    between atoms: _73  and  _74
REMARK   32  A    between atoms: _74  and  _75
REMARK   33  A    between atoms: _79  and  _81
REMARK   34  A    between atoms: _81  and  _82
REMARK   35  A    between atoms: _81  and  _84
REMARK   36  A    between atoms: _84  and  _85
REMARK   37  A    between atoms: _85  and  _86
REMARK   38  A    between atoms: _89  and  _91
REMARK   39  A    between atoms: _91  and  _92
REMARK   40  A    between atoms: _91  and  _94
REMARK   41  A    between atoms: _94  and  _95
REMARK   42  A    between atoms: _98  and  _100
REMARK   43  A    between atoms: _100  and  _101
REMARK   44  A    between atoms: _103  and  _105
REMARK   45  A    between atoms: _105  and  _106
REMARK   46  A    between atoms: _109  and  _111
REMARK   47  A    between atoms: _111  and  _112
REMARK   48  A    between atoms: _111  and  _114
REMARK   49  A    between atoms: _114  and  _115
REMARK   50  A    between atoms: _120  and  _121
REMARK   51  A    between atoms: _123  and  _125
REMARK   52  A    between atoms: _125  and  _126
REMARK   53  A    between atoms: _125  and  _128
REMARK   54  A    between atoms: _130  and  _132
REMARK   55  A    between atoms: _132  and  _133
REMARK   56  A    between atoms: _135  and  _137
REMARK   57  A    between atoms: _137  and  _138
REMARK   58  A    between atoms: _137  and  _140
REMARK   59  A    between atoms: _140  and  _141
REMARK   60  A    between atoms: _144  and  _146
REMARK   61  A    between atoms: _146  and  _147
REMARK   62  A    between atoms: _146  and  _149
REMARK   63  A    between atoms: _150  and  _151
REMARK   64  A    between atoms: _153  and  _155
REMARK   65  A    between atoms: _155  and  _156
REMARK   66  A    between atoms: _155  and  _158
REMARK   67  A    between atoms: _158  and  _159
REMARK   68  A    between atoms: _159  and  _160
REMARK   69  A    between atoms: _163  and  _165
REMARK   70  A    between atoms: _165  and  _166
REMARK   71  A    between atoms: _165  and  _168
REMARK   72  A    between atoms: _168  and  _169
REMARK   73  A    between atoms: _172  and  _174
REMARK   74  A    between atoms: _174  and  _175
REMARK   75  A    between atoms: _174  and  _177
REMARK   76  A    between atoms: _177  and  _178
REMARK   77  A    between atoms: _184  and  _185
REMARK   78  A    between atoms: _190  and  _192
REMARK   79  A    between atoms: _192  and  _193
REMARK   80  A    between atoms: _192  and  _195
REMARK   81  A    between atoms: _195  and  _196
REMARK   82  A    between atoms: _199  and  _201
REMARK   83  A    between atoms: _201  and  _202
REMARK   84  A    between atoms: _201  and  _204
REMARK   85  A    between atoms: _206  and  _208
REMARK   86  A    between atoms: _208  and  _209
REMARK   87  A    between atoms: _212  and  _214
REMARK   88  A    between atoms: _214  and  _215
REMARK   89  A    between atoms: _214  and  _217
REMARK   90  A    between atoms: _217  and  _218
REMARK   91  A    between atoms: _221  and  _223
REMARK   92  A    between atoms: _223  and  _224
REMARK   93  A    between atoms: _223  and  _226
REMARK   94  A    between atoms: _226  and  _227
REMARK   95  A    between atoms: _230  and  _232
REMARK   96  A    between atoms: _232  and  _233
REMARK   97  A    between atoms: _232  and  _235
REMARK   98  A    between atoms: _235  and  _236
REMARK   99  A    between atoms: _241  and  _243
REMARK  100  A    between atoms: _243  and  _244
REMARK  101  A    between atoms: _246  and  _248
REMARK  102  A    between atoms: _248  and  _249
REMARK  103  A    between atoms: _252  and  _254
REMARK  104  A    between atoms: _254  and  _255
REMARK  105  A    between atoms: _254  and  _257
REMARK  106  A    between atoms: _257  and  _258
REMARK  107  A    between atoms: _260  and  _262
REMARK  108  A    between atoms: _262  and  _263
REMARK  109  A    between atoms: _262  and  _265
REMARK  110  A    between atoms: _265  and  _266
REMARK  111  A    between atoms: _266  and  _267
REMARK  112  A    between atoms: _272  and  _274
REMARK  113  A    between atoms: _274  and  _275
REMARK  114  A    between atoms: _274  and  _277
REMARK  115  A    between atoms: _277  and  _278
REMARK  116  A    between atoms: _281  and  _283
REMARK  117  A    between atoms: _283  and  _284
REMARK  118  A    between atoms: _283  and  _286
REMARK  119  A    between atoms: _286  and  _287
REMARK  120  A    between atoms: _290  and  _292
REMARK  121  A    between atoms: _292  and  _293
REMARK  122  A    between atoms: _292  and  _295
REMARK  123  A    between atoms: _295  and  _296
REMARK  124  A    between atoms: _299  and  _301
REMARK  125  A    between atoms: _301  and  _302
REMARK  126  A    between atoms: _301  and  _304
REMARK  127  A    between atoms: _304  and  _305
REMARK  128  A    between atoms: _311  and  _313
REMARK  129  A    between atoms: _313  and  _314
REMARK  130  A    between atoms: _313  and  _316
REMARK  131  A    between atoms: _316  and  _317
REMARK  132  A    between atoms: _320  and  _322
REMARK  133  A    between atoms: _322  and  _323
REMARK  134  A    between atoms: _322  and  _325
REMARK  135  A    between atoms: _325  and  _326
REMARK  136  A    between atoms: _326  and  _327
REMARK  137  A    between atoms: _327  and  MG_517
REMARK  138  A    between atoms: _329  and  _331
REMARK  139  A    between atoms: _331  and  _332
REMARK  140  A    between atoms: _331  and  _334
REMARK  141  A    between atoms: _334  and  _335
REMARK  142  A    between atoms: _340  and  _342
REMARK  143  A    between atoms: _342  and  _343
REMARK  144  A    between atoms: _342  and  _345
REMARK  145  A    between atoms: _345  and  _346
REMARK  146  A    between atoms: _356  and  _358
REMARK  147  A    between atoms: _358  and  _359
REMARK  148  A    between atoms: _358  and  _361
REMARK  149  A    between atoms: _361  and  _362
REMARK  150  A    between atoms: _362  and  _363
REMARK  151  A    between atoms: _363  and  _364
REMARK  152  A    between atoms: _364  and  _365
REMARK  153  A    between atoms: _369  and  _371
REMARK  154  A    between atoms: _371  and  _372
REMARK  155  A    between atoms: _371  and  _374
REMARK  156  A    between atoms: _374  and  _375
REMARK  157  A    between atoms: _378  and  _380
REMARK  158  A    between atoms: _380  and  _381
REMARK  159  A    between atoms: _380  and  _383
REMARK  160  A    between atoms: _383  and  _384
REMARK  161  A    between atoms: _384  and  _385
REMARK  162  A    between atoms: _385  and  _386
REMARK  163  A    between atoms: _395  and  _397
REMARK  164  A    between atoms: _397  and  _398
REMARK  165  A    between atoms: _397  and  _400
REMARK  166  A    between atoms: _400  and  _401
REMARK  167  A    between atoms: _406  and  _407
REMARK  168  A    between atoms: _409  and  _411
REMARK  169  A    between atoms: _411  and  _412
REMARK  170  A    between atoms: _411  and  _414
REMARK  171  A    between atoms: _414  and  _415
REMARK  172  A    between atoms: _418  and  _420
REMARK  173  A    between atoms: _420  and  _421
REMARK  174  A    between atoms: _420  and  _423
REMARK  175  A    between atoms: _423  and  _424
REMARK  176  A    between atoms: _427  and  _429
REMARK  177  A    between atoms: _429  and  _430
REMARK  178  A    between atoms: _429  and  _432
REMARK  179  A    between atoms: _432  and  _433
REMARK  180  A    between atoms: _438  and  _440
REMARK  181  A    between atoms: _440  and  _441
REMARK  182  A    between atoms: _440  and  _443
REMARK  183  A    between atoms: _446  and  _448
REMARK  184  A    between atoms: _448  and  _449
REMARK  185  A    between atoms: _448  and  _451
REMARK  186  A    between atoms: _455  and  _456
REMARK  187  A    between atoms: _461  and  _463
REMARK  188  A    between atoms: _463  and  _464
REMARK  189  A    between atoms: _466  and  _468
REMARK  190  A    between atoms: _468  and  _469
REMARK  191  A    between atoms: _468  and  _471
REMARK  192  A    between atoms: _471  and  _472
REMARK  193  A    between atoms: _475  and  _477
REMARK  194  A    between atoms: _477  and  _478
REMARK  195  A    between atoms: _477  and  _480
REMARK  196  A    between atoms: _480  and  _481
REMARK  197  A    between atoms: _484  and  _486
REMARK  198  A    between atoms: _486  and  _487
REMARK  199  A    between atoms: _486  and  _489
REMARK  200  A    between atoms: _489  and  _490
REMARK  201  A    between atoms: _490  and  _491
REMARK  202  A    between atoms: _494  and  _496
REMARK  203  A    between atoms: _496  and  _497
REMARK  204  A    between atoms: _496  and  _499
REMARK  205  A    between atoms: _499  and  _500
REMARK  206  A    between atoms: _505  and  _506
REMARK  207  A    between atoms: _508  and  _510
REMARK  208  A    between atoms: _510  and  _511
REMARK  209  A    between atoms: _510  and  _513
REMARK  210  A    between atoms: _513  and  _514
REMARK  211  A    between atoms: _514  and  _515
REMARK                            x       y       z     vdW  Elec       q    Type
REMARK                         _______ _______ _______ _____ _____    ______ ____
ROOT
ATOM      1  CA  ASN A   2      31.658  -6.826  -1.728  0.00  0.00    +0.158 C 
ENDROOT
BRANCH   1   3
ATOM      2  C   ASP A   1      29.803  -6.107  -3.183  0.00  0.00    +0.239 C 
ATOM      3  N   ASN A   2      30.447  -7.037  -2.481  0.00  0.00    -0.297 N 
ATOM      4  H   ASN A   2      30.043  -7.995  -2.475  0.00  0.00    +0.150 HD
ATOM      5  O   ASP A   1      30.019  -4.916  -3.070  0.00  0.00    -0.274 OA
BRANCH   2   6
ATOM      6  CA  ASP A   1      28.756  -6.585  -4.203  0.00  0.00    +0.156 C 
BRANCH   6   7
ATOM      7  N   ASP A   1      27.774  -5.562  -4.478  0.00  0.00    -0.238 NA
ATOM      8  H   ASP A   1      27.866  -4.989  -5.341  0.00  0.00    +0.142 HD
ENDBRANCH   6   7
BRANCH   6   9
ATOM      9  CB  ASP A   1      29.397  -7.030  -5.554  0.00  0.00    +0.140 C 
BRANCH   9  10
ATOM     10  CG  ASP A   1      30.216  -8.322  -5.410  0.00  0.00    +0.367 C 
ATOM     11  OD2 ASP A   1      29.907  -9.190  -4.562  0.00  0.00    -0.246 OA
ATOM     12  OD1 ASP A   1      31.236  -8.518  -6.164  0.00  0.00    -0.246 OA
ENDBRANCH   9  10
ENDBRANCH   6   9
ENDBRANCH   2   6
ENDBRANCH   1   3
BRANCH   1  13
ATOM     13  C   ASN A   2      31.429  -5.982  -0.514  0.00  0.00    +0.241 C 
ATOM     14  N   VAL A   3      30.280  -6.066   0.081  0.00  0.00    -0.298 N 
ATOM     15  H   VAL A   3      29.544  -6.720  -0.254  0.00  0.00    +0.150 HD
ATOM     16  O   ASN A   2      32.345  -5.249  -0.106  0.00  0.00    -0.273 OA
BRANCH  14  17
ATOM     17  CA  VAL A   3      30.063  -5.215   1.227  0.00  0.00    +0.137 C 
BRANCH  17  18
ATOM     18  CB  VAL A   3      28.512  -4.951   1.496  0.00  0.00    +0.026 C 
ATOM     19  CG2 VAL A   3      27.814  -6.192   2.036  0.00  0.00    +0.002 C 
ATOM     20  CG1 VAL A   3      27.889  -4.261   0.289  0.00  0.00    +0.002 C 
ENDBRANCH  17  18
BRANCH  17  21
ATOM     21  C   VAL A   3      30.757  -5.681   2.478  0.00  0.00    +0.227 C 
ATOM     22  O   VAL A   3      30.788  -4.896   3.444  0.00  0.00    -0.286 OA
ENDBRANCH  17  21
ENDBRANCH  14  17
ENDBRANCH   1  13
BRANCH   1  23
ATOM     23  CB  ASN A   2      32.679  -6.172  -2.659  0.00  0.00    +0.114 C 
BRANCH  23  24
ATOM     24  CG  ASN A   2      33.028  -7.037  -3.854  0.00  0.00    +0.222 C 
ATOM     25  ND2 ASN A   2      33.507  -8.244  -3.583  0.00  0.00    -0.329 N 
ATOM     26 HD21 ASN A   2      33.596  -8.559  -2.596  0.00  0.00    +0.145 HD
ATOM     27 HD22 ASN A   2      33.794  -8.876  -4.358  0.00  0.00    +0.145 HD
ATOM     28  OD1 ASN A   2      32.889  -6.585  -4.983  0.00  0.00    -0.275 OA
ENDBRANCH  23  24
ENDBRANCH   1  23
TORSDOF 11
REMARK  Name = ../refined-set-2016/3ozt/3ozt_pocket.pdb
REMARK  211 active torsions:
REMARK  status: ('A' for Active; 'I' for Inactive)
REMARK    1  A    between atoms: _1  and  _3
REMARK    2  A    between atoms: _3  and  _4
REMARK    3  A    between atoms: _3  and  _6
REMARK    4  A    between atoms: _6  and  _7
REMARK    5  A    between atoms: _7  and  _8
REMARK    6  A    between atoms: _11  and  _13
REMARK    7  A    between atoms: _13  and  _14
REMARK    8  A    between atoms: _13  and  _16
REMARK    9  A    between atoms: _16  and  _17
REMARK   10  A    between atoms: _27  and  _29
REMARK   11  A    between atoms: _29  and  _30
REMARK   12  A    between atoms: _33  and  _35
REMARK   13  A    between atoms: _35  and  _36
REMARK   14  A    between atoms: _35  and  _38
REMARK   15  A    between atoms: _38  and  _39
REMARK   16  A    between atoms: _39  and  _40
REMARK   17  A    between atoms: _42  and  _44
REMARK   18  A    between atoms: _44  and  _45
REMARK   19  A    between atoms: _44  and  _47
REMARK   20  A    between atoms: _47  and  _48
REMARK   21  A    between atoms: _53  and  _55
REMARK   22  A    between atoms: _55  and  _56
REMARK   23  A    between atoms: _55  and  _58
REMARK   24  A    between atoms: _61  and  _63
REMARK   25  A    between atoms: _63  and  _64
REMARK   26  A    between atoms: _66  and  _68
REMARK   27  A    between atoms: _68  and  _69
REMARK   28  A    between atoms: _68  and  _71
REMARK   29  A    between atoms: _71  and  _72
REMARK   30  A    between atoms: _72  and  _73
REMARK   31  A    between atoms: _73  and  _74
REMARK   32  A    between atoms: _74  and  _75
REMARK   33  A    between atoms: _79  and  _81
REMARK   34  A    between atoms: _81  and  _82
REMARK   35  A    between atoms: _81  and  _84
REMARK   36  A    between atoms: _84  and  _85
REMARK   37  A    between atoms: _85  and  _86
REMARK   38  A    between atoms: _89  and  _91
REMARK   39  A    between atoms: _91  and  _92
REMARK   40  A    between atoms: _91  and  _94
REMARK   41  A    between atoms: _94  and  _95
REMARK   42  A    between atoms: _98  and  _100
REMARK   43  A    between atoms: _100  and  _101
REMARK   44  A    between atoms: _103  and  _105
REMARK   45  A    between atoms: _105  and  _106
REMARK   46  A    between atoms: _109  and  _111
REMARK   47  A    between atoms: _111  and  _112
REMARK   48  A    between atoms: _111  and  _114
REMARK   49  A    between atoms: _114  and  _115
REMARK   50  A    between atoms: _120  and  _121
REMARK   51  A    between atoms: _123  and  _125
REMARK   52  A    between atoms: _125  and  _126
REMARK   53  A    between atoms: _125  and  _128
REMARK   54  A    between atoms: _130  and  _132
REMARK   55  A    between atoms: _132  and  _133
REMARK   56  A    between atoms: _135  and  _137
REMARK   57  A    between atoms: _137  and  _138
REMARK   58  A    between atoms: _137  and  _140
REMARK   59  A    between atoms: _140  and  _141
REMARK   60  A    between atoms: _144  and  _146
REMARK   61  A    between atoms: _146  and  _147
REMARK   62  A    between atoms: _146  and  _149
REMARK   63  A    between atoms: _150  and  _151
REMARK   64  A    between atoms: _153  and  _155
REMARK   65  A    between atoms: _155  and  _156
REMARK   66  A    between atoms: _155  and  _158
REMARK   67  A    between atoms: _158  and  _159
REMARK   68  A    between atoms: _159  and  _160
REMARK   69  A    between atoms: _163  and  _165
REMARK   70  A    between atoms: _165  and  _166
REMARK   71  A    between atoms: _165  and  _168
REMARK   72  A    between atoms: _168  and  _169
REMARK   73  A    between atoms: _172  and  _174
REMARK   74  A    between atoms: _174  and  _175
REMARK   75  A    between atoms: _174  and  _177
REMARK   76  A    between atoms: _177  and  _178
REMARK   77  A    between atoms: _184  and  _185
REMARK   78  A    between atoms: _190  and  _192
REMARK   79  A    between atoms: _192  and  _193
REMARK   80  A    between atoms: _192  and  _195
REMARK   81  A    between atoms: _195  and  _196
REMARK   82  A    between atoms: _199  and  _201
REMARK   83  A    between atoms: _201  and  _202
REMARK   84  A    between atoms: _201  and  _204
REMARK   85  A    between atoms: _206  and  _208
REMARK   86  A    between atoms: _208  and  _209
REMARK   87  A    between atoms: _212  and  _214
REMARK   88  A    between atoms: _214  and  _215
REMARK   89  A    between atoms: _214  and  _217
REMARK   90  A    between atoms: _217  and  _218
REMARK   91  A    between atoms: _221  and  _223
REMARK   92  A    between atoms: _223  and  _224
REMARK   93  A    between atoms: _223  and  _226
REMARK   94  A    between atoms: _226  and  _227
REMARK   95  A    between atoms: _230  and  _232
REMARK   96  A    between atoms: _232  and  _233
REMARK   97  A    between atoms: _232  and  _235
REMARK   98  A    between atoms: _235  and  _236
REMARK   99  A    between atoms: _241  and  _243
REMARK  100  A    between atoms: _243  and  _244
REMARK  101  A    between atoms: _246  and  _248
REMARK  102  A    between atoms: _248  and  _249
REMARK  103  A    between atoms: _252  and  _254
REMARK  104  A    between atoms: _254  and  _255
REMARK  105  A    between atoms: _254  and  _257
REMARK  106  A    between atoms: _257  and  _258
REMARK  107  A    between atoms: _260  and  _262
REMARK  108  A    between atoms: _262  and  _263
REMARK  109  A    between atoms: _262  and  _265
REMARK  110  A    between atoms: _265  and  _266
REMARK  111  A    between atoms: _266  and  _267
REMARK  112  A    between atoms: _272  and  _274
REMARK  113  A    between atoms: _274  and  _275
REMARK  114  A    between atoms: _274  and  _277
REMARK  115  A    between atoms: _277  and  _278
REMARK  116  A    between atoms: _281  and  _283
REMARK  117  A    between atoms: _283  and  _284
REMARK  118  A    between atoms: _283  and  _286
REMARK  119  A    between atoms: _286  and  _287
REMARK  120  A    between atoms: _290  and  _292
REMARK  121  A    between atoms: _292  and  _293
REMARK  122  A    between atoms: _292  and  _295
REMARK  123  A    between atoms: _295  and  _296
REMARK  124  A    between atoms: _299  and  _301
REMARK  125  A    between atoms: _301  and  _302
REMARK  126  A    between atoms: _301  and  _304
REMARK  127  A    between atoms: _304  and  _305
REMARK  128  A    between atoms: _311  and  _313
REMARK  129  A    between atoms: _313  and  _314
REMARK  130  A    between atoms: _313  and  _316
REMARK  131  A    between atoms: _316  and  _317
REMARK  132  A    between atoms: _320  and  _322
REMARK  133  A    between atoms: _322  and  _323
REMARK  134  A    between atoms: _322  and  _325
REMARK  135  A    between atoms: _325  and  _326
REMARK  136  A    between atoms: _326  and  _327
REMARK  137  A    between atoms: _327  and  MG_517
REMARK  138  A    between atoms: _329  and  _331
REMARK  139  A    between atoms: _331  and  _332
REMARK  140  A    between atoms: _331  and  _334
REMARK  141  A    between atoms: _334  and  _335
REMARK  142  A    between atoms: _340  and  _342
REMARK  143  A    between atoms: _342  and  _343
REMARK  144  A    between atoms: _342  and  _345
REMARK  145  A    between atoms: _345  and  _346
REMARK  146  A    between atoms: _356  and  _358
REMARK  147  A    between atoms: _358  and  _359
REMARK  148  A    between atoms: _358  and  _361
REMARK  149  A    between atoms: _361  and  _362
REMARK  150  A    between atoms: _362  and  _363
REMARK  151  A    between atoms: _363  and  _364
REMARK  152  A    between atoms: _364  and  _365
REMARK  153  A    between atoms: _369  and  _371
REMARK  154  A    between atoms: _371  and  _372
REMARK  155  A    between atoms: _371  and  _374
REMARK  156  A    between atoms: _374  and  _375
REMARK  157  A    between atoms: _378  and  _380
REMARK  158  A    between atoms: _380  and  _381
REMARK  159  A    between atoms: _380  and  _383
REMARK  160  A    between atoms: _383  and  _384
REMARK  161  A    between atoms: _384  and  _385
REMARK  162  A    between atoms: _385  and  _386
REMARK  163  A    between atoms: _395  and  _397
REMARK  164  A    between atoms: _397  and  _398
REMARK  165  A    between atoms: _397  and  _400
REMARK  166  A    between atoms: _400  and  _401
REMARK  167  A    between atoms: _406  and  _407
REMARK  168  A    between atoms: _409  and  _411
REMARK  169  A    between atoms: _411  and  _412
REMARK  170  A    between atoms: _411  and  _414
REMARK  171  A    between atoms: _414  and  _415
REMARK  172  A    between atoms: _418  and  _420
REMARK  173  A    between atoms: _420  and  _421
REMARK  174  A    between atoms: _420  and  _423
REMARK  175  A    between atoms: _423  and  _424
REMARK  176  A    between atoms: _427  and  _429
REMARK  177  A    between atoms: _429  and  _430
REMARK  178  A    between atoms: _429  and  _432
REMARK  179  A    between atoms: _432  and  _433
REMARK  180  A    between atoms: _438  and  _440
REMARK  181  A    between atoms: _440  and  _441
REMARK  182  A    between atoms: _440  and  _443
REMARK  183  A    between atoms: _446  and  _448
REMARK  184  A    between atoms: _448  and  _449
REMARK  185  A    between atoms: _448  and  _451
REMARK  186  A    between atoms: _455  and  _456
REMARK  187  A    between atoms: _461  and  _463
REMARK  188  A    between atoms: _463  and  _464
REMARK  189  A    between atoms: _466  and  _468
REMARK  190  A    between atoms: _468  and  _469
REMARK  191  A    between atoms: _468  and  _471
REMARK  192  A    between atoms: _471  and  _472
REMARK  193  A    between atoms: _475  and  _477
REMARK  194  A    between atoms: _477  and  _478
REMARK  195  A    between atoms: _477  and  _480
REMARK  196  A    between atoms: _480  and  _481
REMARK  197  A    between atoms: _484  and  _486
REMARK  198  A    between atoms: _486  and  _487
REMARK  199  A    between atoms: _486  and  _489
REMARK  200  A    between atoms: _489  and  _490
REMARK  201  A    between atoms: _490  and  _491
REMARK  202  A    between atoms: _494  and  _496
REMARK  203  A    between atoms: _496  and  _497
REMARK  204  A    between atoms: _496  and  _499
REMARK  205  A    between atoms: _499  and  _500
REMARK  206  A    between atoms: _505  and  _506
REMARK  207  A    between atoms: _508  and  _510
REMARK  208  A    between atoms: _510  and  _511
REMARK  209  A    between atoms: _510  and  _513
REMARK  210  A    between atoms: _513  and  _514
REMARK  211  A    between atoms: _514  and  _515
REMARK                            x       y       z     vdW  Elec       q    Type
REMARK                         _______ _______ _______ _____ _____    ______ ____
ROOT
ATOM      1  C   PRO A   2      36.234  -4.801   1.282  0.00  0.00    +0.241 C 
ATOM      2  O   PRO A   2      36.934  -4.252   2.119  0.00  0.00    -0.273 OA
ATOM      3  N   GLY A   3      34.913  -4.670   1.198  0.00  0.00    -0.295 N 
ATOM      4  H   GLY A   3      34.405  -5.252   0.502  0.00  0.00    +0.150 HD
ENDROOT
BRANCH   1   7
ATOM      5  C   VAL A   1      35.349  -7.671   0.002  0.00  0.00    +0.241 C 
ATOM      6  N   PRO A   2      36.087  -6.633  -0.442  0.00  0.00    -0.272 N 
ATOM      7  CA  PRO A   2      36.923  -5.748   0.362  0.00  0.00    +0.152 C 
ATOM      8  CB  PRO A   2      37.768  -5.013  -0.676  0.00  0.00    +0.031 C 
ATOM      9  CG  PRO A   2      37.790  -5.883  -1.883  0.00  0.00    +0.024 C 
ATOM     10  CD  PRO A   2      36.410  -6.519  -1.865  0.00  0.00    +0.094 C 
ATOM     11  O   VAL A   1      34.623  -8.291  -0.811  0.00  0.00    -0.273 OA
BRANCH   5  12
ATOM     12  CA  VAL A   1      35.337  -7.991   1.475  0.00  0.00    +0.145 C 
BRANCH  12  13
ATOM     13  CB  VAL A   1      35.964  -9.376   1.715  0.00  0.00    +0.025 C 
ATOM     14  CG2 VAL A   1      35.968  -9.737   3.200  0.00  0.00    +0.002 C 
ATOM     15  CG1 VAL A   1      37.396  -9.431   1.046  0.00  0.00    +0.002 C 
ENDBRANCH  12  13
BRANCH  12  16
ATOM     16  N   VAL A   1      33.953  -7.925   1.986  0.00  0.00    -0.238 NA
ATOM     17  H   VAL A   1      33.197  -8.341   1.406  0.00  0.00    +0.142 HD
ENDBRANCH  12  16
ENDBRANCH   5  12
ENDBRANCH   1   7
BRANCH   3  18
ATOM     18  CA  GLY A   3      34.142  -3.760   2.023  0.00  0.00    +0.176 C 
BRANCH  18  19
ATOM     19  C   GLY A   3      33.877  -2.417   1.382  0.00  0.00    +0.243 C 
ATOM     20  N   THR A   4      32.744  -1.858   1.774  0.00  0.00    -0.296 N 
ATOM     21  H   THR A   4      32.185  -2.363   2.491  0.00  0.00    +0.150 HD
ATOM     22  O   GLY A   3      34.633  -1.953   0.467  0.00  0.00    -0.273 OA
BRANCH  20  23
ATOM     23  CA  THR A   4      32.216  -0.593   1.284  0.00  0.00    +0.164 C 
BRANCH  23  24
ATOM     24  C   THR A   4      31.659   0.159   2.515  0.00  0.00    +0.229 C 
ATOM     25  O   THR A   4      30.464   0.373   2.587  0.00  0.00    -0.286 OA
ENDBRANCH  23  24
BRANCH  23  26
ATOM     26  CB  THR A   4      31.037  -0.849   0.283  0.00  0.00    +0.136 C 
ATOM     27  CG2 THR A   4      31.507  -1.596  -0.992  0.00  0.00    +0.034 C 
BRANCH  26  28
ATOM     28  OG1 THR A   4      29.966  -1.582   0.926  0.00  0.00    -0.382 OA
ATOM     29  HG1 THR A   4      29.625  -1.059   1.695  0.00  0.00    +0.210 HD
ENDBRANCH  26  28
ENDBRANCH  23  26
ENDBRANCH  20  23
ENDBRANCH  18  19
ENDBRANCH   3  18
TORSDOF 10
REMARK  Name = ../refined-set-2016/3ozt/3ozt_pocket.pdb
REMARK  211 active torsions:
REMARK  status: ('A' for Active; 'I' for Inactive)
REMARK    1  A    between atoms: _1  and  _3
REMARK    2  A    between atoms: _3  and  _4
REMARK    3  A    between atoms: _3  and  _6
REMARK    4  A    between atoms: _6  and  _7
REMARK    5  A    between atoms: _7  and  _8
REMARK    6  A    between atoms: _11  and  _13
REMARK    7  A    between atoms: _13  and  _14
REMARK    8  A    between atoms: _13  and  _16
REMARK    9  A    between atoms: _16  and  _17
REMARK   10  A    between atoms: _27  and  _29
REMARK   11  A    between atoms: _29  and  _30
REMARK   12  A    between atoms: _33  and  _35
REMARK   13  A    between atoms: _35  and  _36
REMARK   14  A    between atoms: _35  and  _38
REMARK   15  A    between atoms: _38  and  _39
REMARK   16  A    between atoms: _39  and  _40
REMARK   17  A    between atoms: _42  and  _44
REMARK   18  A    between atoms: _44  and  _45
REMARK   19  A    between atoms: _44  and  _47
REMARK   20  A    between atoms: _47  and  _48
REMARK   21  A    between atoms: _53  and  _55
REMARK   22  A    between atoms: _55  and  _56
REMARK   23  A    between atoms: _55  and  _58
REMARK   24  A    between atoms: _61  and  _63
REMARK   25  A    between atoms: _63  and  _64
REMARK   26  A    between atoms: _66  and  _68
REMARK   27  A    between atoms: _68  and  _69
REMARK   28  A    between atoms: _68  and  _71
REMARK   29  A    between atoms: _71  and  _72
REMARK   30  A    between atoms: _72  and  _73
REMARK   31  A    between atoms: _73  and  _74
REMARK   32  A    between atoms: _74  and  _75
REMARK   33  A    between atoms: _79  and  _81
REMARK   34  A    between atoms: _81  and  _82
REMARK   35  A    between atoms: _81  and  _84
REMARK   36  A    between atoms: _84  and  _85
REMARK   37  A    between atoms: _85  and  _86
REMARK   38  A    between atoms: _89  and  _91
REMARK   39  A    between atoms: _91  and  _92
REMARK   40  A    between atoms: _91  and  _94
REMARK   41  A    between atoms: _94  and  _95
REMARK   42  A    between atoms: _98  and  _100
REMARK   43  A    between atoms: _100  and  _101
REMARK   44  A    between atoms: _103  and  _105
REMARK   45  A    between atoms: _105  and  _106
REMARK   46  A    between atoms: _109  and  _111
REMARK   47  A    between atoms: _111  and  _112
REMARK   48  A    between atoms: _111  and  _114
REMARK   49  A    between atoms: _114  and  _115
REMARK   50  A    between atoms: _120  and  _121
REMARK   51  A    between atoms: _123  and  _125
REMARK   52  A    between atoms: _125  and  _126
REMARK   53  A    between atoms: _125  and  _128
REMARK   54  A    between atoms: _130  and  _132
REMARK   55  A    between atoms: _132  and  _133
REMARK   56  A    between atoms: _135  and  _137
REMARK   57  A    between atoms: _137  and  _138
REMARK   58  A    between atoms: _137  and  _140
REMARK   59  A    between atoms: _140  and  _141
REMARK   60  A    between atoms: _144  and  _146
REMARK   61  A    between atoms: _146  and  _147
REMARK   62  A    between atoms: _146  and  _149
REMARK   63  A    between atoms: _150  and  _151
REMARK   64  A    between atoms: _153  and  _155
REMARK   65  A    between atoms: _155  and  _156
REMARK   66  A    between atoms: _155  and  _158
REMARK   67  A    between atoms: _158  and  _159
REMARK   68  A    between atoms: _159  and  _160
REMARK   69  A    between atoms: _163  and  _165
REMARK   70  A    between atoms: _165  and  _166
REMARK   71  A    between atoms: _165  and  _168
REMARK   72  A    between atoms: _168  and  _169
REMARK   73  A    between atoms: _172  and  _174
REMARK   74  A    between atoms: _174  and  _175
REMARK   75  A    between atoms: _174  and  _177
REMARK   76  A    between atoms: _177  and  _178
REMARK   77  A    between atoms: _184  and  _185
REMARK   78  A    between atoms: _190  and  _192
REMARK   79  A    between atoms: _192  and  _193
REMARK   80  A    between atoms: _192  and  _195
REMARK   81  A    between atoms: _195  and  _196
REMARK   82  A    between atoms: _199  and  _201
REMARK   83  A    between atoms: _201  and  _202
REMARK   84  A    between atoms: _201  and  _204
REMARK   85  A    between atoms: _206  and  _208
REMARK   86  A    between atoms: _208  and  _209
REMARK   87  A    between atoms: _212  and  _214
REMARK   88  A    between atoms: _214  and  _215
REMARK   89  A    between atoms: _214  and  _217
REMARK   90  A    between atoms: _217  and  _218
REMARK   91  A    between atoms: _221  and  _223
REMARK   92  A    between atoms: _223  and  _224
REMARK   93  A    between atoms: _223  and  _226
REMARK   94  A    between atoms: _226  and  _227
REMARK   95  A    between atoms: _230  and  _232
REMARK   96  A    between atoms: _232  and  _233
REMARK   97  A    between atoms: _232  and  _235
REMARK   98  A    between atoms: _235  and  _236
REMARK   99  A    between atoms: _241  and  _243
REMARK  100  A    between atoms: _243  and  _244
REMARK  101  A    between atoms: _246  and  _248
REMARK  102  A    between atoms: _248  and  _249
REMARK  103  A    between atoms: _252  and  _254
REMARK  104  A    between atoms: _254  and  _255
REMARK  105  A    between atoms: _254  and  _257
REMARK  106  A    between atoms: _257  and  _258
REMARK  107  A    between atoms: _260  and  _262
REMARK  108  A    between atoms: _262  and  _263
REMARK  109  A    between atoms: _262  and  _265
REMARK  110  A    between atoms: _265  and  _266
REMARK  111  A    between atoms: _266  and  _267
REMARK  112  A    between atoms: _272  and  _274
REMARK  113  A    between atoms: _274  and  _275
REMARK  114  A    between atoms: _274  and  _277
REMARK  115  A    between atoms: _277  and  _278
REMARK  116  A    between atoms: _281  and  _283
REMARK  117  A    between atoms: _283  and  _284
REMARK  118  A    between atoms: _283  and  _286
REMARK  119  A    between atoms: _286  and  _287
REMARK  120  A    between atoms: _290  and  _292
REMARK  121  A    between atoms: _292  and  _293
REMARK  122  A    between atoms: _292  and  _295
REMARK  123  A    between atoms: _295  and  _296
REMARK  124  A    between atoms: _299  and  _301
REMARK  125  A    between atoms: _301  and  _302
REMARK  126  A    between atoms: _301  and  _304
REMARK  127  A    between atoms: _304  and  _305
REMARK  128  A    between atoms: _311  and  _313
REMARK  129  A    between atoms: _313  and  _314
REMARK  130  A    between atoms: _313  and  _316
REMARK  131  A    between atoms: _316  and  _317
REMARK  132  A    between atoms: _320  and  _322
REMARK  133  A    between atoms: _322  and  _323
REMARK  134  A    between atoms: _322  and  _325
REMARK  135  A    between atoms: _325  and  _326
REMARK  136  A    between atoms: _326  and  _327
REMARK  137  A    between atoms: _327  and  MG_517
REMARK  138  A    between atoms: _329  and  _331
REMARK  139  A    between atoms: _331  and  _332
REMARK  140  A    between atoms: _331  and  _334
REMARK  141  A    between atoms: _334  and  _335
REMARK  142  A    between atoms: _340  and  _342
REMARK  143  A    between atoms: _342  and  _343
REMARK  144  A    between atoms: _342  and  _345
REMARK  145  A    between atoms: _345  and  _346
REMARK  146  A    between atoms: _356  and  _358
REMARK  147  A    between atoms: _358  and  _359
REMARK  148  A    between atoms: _358  and  _361
REMARK  149  A    between atoms: _361  and  _362
REMARK  150  A    between atoms: _362  and  _363
REMARK  151  A    between atoms: _363  and  _364
REMARK  152  A    between atoms: _364  and  _365
REMARK  153  A    between atoms: _369  and  _371
REMARK  154  A    between atoms: _371  and  _372
REMARK  155  A    between atoms: _371  and  _374
REMARK  156  A    between atoms: _374  and  _375
REMARK  157  A    between atoms: _378  and  _380
REMARK  158  A    between atoms: _380  and  _381
REMARK  159  A    between atoms: _380  and  _383
REMARK  160  A    between atoms: _383  and  _384
REMARK  161  A    between atoms: _384  and  _385
REMARK  162  A    between atoms: _385  and  _386
REMARK  163  A    between atoms: _395  and  _397
REMARK  164  A    between atoms: _397  and  _398
REMARK  165  A    between atoms: _397  and  _400
REMARK  166  A    between atoms: _400  and  _401
REMARK  167  A    between atoms: _406  and  _407
REMARK  168  A    between atoms: _409  and  _411
REMARK  169  A    between atoms: _411  and  _412
REMARK  170  A    between atoms: _411  and  _414
REMARK  171  A    between atoms: _414  and  _415
REMARK  172  A    between atoms: _418  and  _420
REMARK  173  A    between atoms: _420  and  _421
REMARK  174  A    between atoms: _420  and  _423
REMARK  175  A    between atoms: _423  and  _424
REMARK  176  A    between atoms: _427  and  _429
REMARK  177  A    between atoms: _429  and  _430
REMARK  178  A    between atoms: _429  and  _432
REMARK  179  A    between atoms: _432  and  _433
REMARK  180  A    between atoms: _438  and  _440
REMARK  181  A    between atoms: _440  and  _441
REMARK  182  A    between atoms: _440  and  _443
REMARK  183  A    between atoms: _446  and  _448
REMARK  184  A    between atoms: _448  and  _449
REMARK  185  A    between atoms: _448  and  _451
REMARK  186  A    between atoms: _455  and  _456
REMARK  187  A    between atoms: _461  and  _463
REMARK  188  A    between atoms: _463  and  _464
REMARK  189  A    between atoms: _466  and  _468
REMARK  190  A    between atoms: _468  and  _469
REMARK  191  A    between atoms: _468  and  _471
REMARK  192  A    between atoms: _471  and  _472
REMARK  193  A    between atoms: _475  and  _477
REMARK  194  A    between atoms: _477  and  _478
REMARK  195  A    between atoms: _477  and  _480
REMARK  196  A    between atoms: _480  and  _481
REMARK  197  A    between atoms: _484  and  _486
REMARK  198  A    between atoms: _486  and  _487
REMARK  199  A    between atoms: _486  and  _489
REMARK  200  A    between atoms: _489  and  _490
REMARK  201  A    between atoms: _490  and  _491
REMARK  202  A    between atoms: _494  and  _496
REMARK  203  A    between atoms: _496  and  _497
REMARK  204  A    between atoms: _496  and  _499
REMARK  205  A    between atoms: _499  and  _500
REMARK  206  A    between atoms: _505  and  _506
REMARK  207  A    between atoms: _508  and  _510
REMARK  208  A    between atoms: _510  and  _511
REMARK  209  A    between atoms: _510  and  _513
REMARK  210  A    between atoms: _513  and  _514
REMARK  211  A    between atoms: _514  and  _515
REMARK                            x       y       z     vdW  Elec       q    Type
REMARK                         _______ _______ _______ _____ _____    ______ ____
ROOT
ATOM      1  C   GLU A   2      36.259 -16.171  -5.516  0.00  0.00    +0.241 C 
ATOM      2  O   GLU A   2      37.199 -15.514  -5.090  0.00  0.00    -0.273 OA
ATOM      3  N   TYR A   3      36.346 -17.456  -5.936  0.00  0.00    -0.297 N 
ATOM      4  H   TYR A   3      35.471 -18.017  -5.976  0.00  0.00    +0.150 HD
ENDROOT
BRANCH   3   5
ATOM      5  CA  TYR A   3      37.612 -18.110  -6.342  0.00  0.00    +0.153 C 
BRANCH   5   6
ATOM      6  C   TYR A   3      38.724 -18.144  -5.254  0.00  0.00    +0.241 C 
ATOM      7  N   MET A   4      38.388 -18.698  -4.089  0.00  0.00    -0.298 N 
ATOM      8  H   MET A   4      37.478 -19.193  -3.997  0.00  0.00    +0.150 HD
ATOM      9  O   TYR A   3      39.898 -17.717  -5.480  0.00  0.00    -0.273 OA
BRANCH   7  10
ATOM     10  CA  MET A   4      39.298 -18.615  -2.928  0.00  0.00    +0.138 C 
BRANCH  10  11
ATOM     11  C   MET A   4      40.002 -19.934  -2.526  0.00  0.00    +0.227 C 
ATOM     12  O   MET A   4      40.505 -20.067  -1.399  0.00  0.00    -0.286 OA
ENDBRANCH  10  11
BRANCH  10  13
ATOM     13  CB  MET A   4      38.585 -17.975  -1.751  0.00  0.00    +0.039 C 
BRANCH  13  14
ATOM     14  CG  MET A   4      38.298 -16.461  -2.000  0.00  0.00    +0.060 C 
BRANCH  14  15
ATOM     15  SD  MET A   4      39.822 -15.438  -2.486  0.00  0.00    -0.139 S 
ATOM     16  CE  MET A   4      40.458 -15.718  -0.931  0.00  0.00    +0.069 C 
ENDBRANCH  14  15
ENDBRANCH  13  14
ENDBRANCH  10  13
ENDBRANCH   7  10
ENDBRANCH   5   6
BRANCH   5  17
ATOM     17  CB  TYR A   3      38.131 -17.426  -7.580  0.00  0.00    +0.055 C 
BRANCH  17  18
ATOM     18  CG  TYR A   3      37.097 -17.149  -8.683  0.00  0.00    -0.020 A 
ATOM     19  CD2 TYR A   3      36.962 -15.897  -9.174  0.00  0.00    -0.001 A 
ATOM     20  CE2 TYR A   3      36.076 -15.585 -10.170  0.00  0.00    +0.036 A 
ATOM     21  CZ  TYR A   3      35.263 -16.539 -10.741  0.00  0.00    +0.134 A 
ATOM     22  CE1 TYR A   3      35.338 -17.847 -10.265  0.00  0.00    +0.036 A 
ATOM     23  CD1 TYR A   3      36.271 -18.158  -9.240  0.00  0.00    -0.001 A 
BRANCH  21  24
ATOM     24  OH  TYR A   3      34.427 -16.089 -11.748  0.00  0.00    -0.506 OA
ATOM     25  HH  TYR A   3      33.888 -16.845 -12.090  0.00  0.00    +0.292 HD
ENDBRANCH  21  24
ENDBRANCH  17  18
ENDBRANCH   5  17
ENDBRANCH   3   5
BRANCH   1  26
ATOM     26  CA  GLU A   2      34.834 -15.546  -5.503  0.00  0.00    +0.149 C 
BRANCH  26  29
ATOM     27  C   LEU A   1      34.526 -15.257  -3.085  0.00  0.00    +0.238 C 
ATOM     28  O   LEU A   1      34.839 -16.414  -2.789  0.00  0.00    -0.274 OA
ATOM     29  N   GLU A   2      34.525 -14.761  -4.293  0.00  0.00    -0.297 N 
ATOM     30  H   GLU A   2      34.293 -13.754  -4.409  0.00  0.00    +0.150 HD
BRANCH  27  31
ATOM     31  CA  LEU A   1      34.162 -14.232  -1.950  0.00  0.00    +0.145 C 
BRANCH  31  32
ATOM     32  N   LEU A   1      33.339 -14.902  -0.932  0.00  0.00    -0.238 NA
ATOM     33  H   LEU A   1      33.684 -14.957   0.048  0.00  0.00    +0.142 HD
ENDBRANCH  31  32
BRANCH  31  34
ATOM     34  CB  LEU A   1      35.472 -13.680  -1.342  0.00  0.00    +0.026 C 
BRANCH  34  35
ATOM     35  CG  LEU A   1      36.258 -12.741  -2.236  0.00  0.00    +0.002 C 
ATOM     36  CD2 LEU A   1      37.588 -12.491  -1.453  0.00  0.00    +0.000 C 
ATOM     37  CD1 LEU A   1      35.489 -11.397  -2.482  0.00  0.00    +0.000 C 
ENDBRANCH  34  35
ENDBRANCH  31  34
ENDBRANCH  27  31
ENDBRANCH  26  29
BRANCH  26  38
ATOM     38  CB  GLU A   2      34.622 -14.673  -6.734  0.00  0.00    +0.041 C 
BRANCH  38  39
ATOM     39  CG  GLU A   2      35.534 -13.358  -6.787  0.00  0.00    +0.116 C 
BRANCH  39  40
ATOM     40  CD  GLU A   2      34.853 -12.043  -6.367  0.00  0.00    +0.365 C 
ATOM     41  OE2 GLU A   2      33.955 -12.050  -5.463  0.00  0.00    -0.246 OA
ATOM     42  OE1 GLU A   2      35.250 -11.020  -6.945  0.00  0.00    -0.246 OA
ENDBRANCH  39  40
ENDBRANCH  38  39
ENDBRANCH  26  38
ENDBRANCH   1  26
TORSDOF 19
REMARK  Name = ../refined-set-2016/3ozt/3ozt_pocket.pdb
REMARK  211 active torsions:
REMARK  status: ('A' for Active; 'I' for Inactive)
REMARK    1  A    between atoms: _1  and  _3
REMARK    2  A    between atoms: _3  and  _4
REMARK    3  A    between atoms: _3  and  _6
REMARK    4  A    between atoms: _6  and  _7
REMARK    5  A    between atoms: _7  and  _8
REMARK    6  A    between atoms: _11  and  _13
REMARK    7  A    between atoms: _13  and  _14
REMARK    8  A    between atoms: _13  and  _16
REMARK    9  A    between atoms: _16  and  _17
REMARK   10  A    between atoms: _27  and  _29
REMARK   11  A    between atoms: _29  and  _30
REMARK   12  A    between atoms: _33  and  _35
REMARK   13  A    between atoms: _35  and  _36
REMARK   14  A    between atoms: _35  and  _38
REMARK   15  A    between atoms: _38  and  _39
REMARK   16  A    between atoms: _39  and  _40
REMARK   17  A    between atoms: _42  and  _44
REMARK   18  A    between atoms: _44  and  _45
REMARK   19  A    between atoms: _44  and  _47
REMARK   20  A    between atoms: _47  and  _48
REMARK   21  A    between atoms: _53  and  _55
REMARK   22  A    between atoms: _55  and  _56
REMARK   23  A    between atoms: _55  and  _58
REMARK   24  A    between atoms: _61  and  _63
REMARK   25  A    between atoms: _63  and  _64
REMARK   26  A    between atoms: _66  and  _68
REMARK   27  A    between atoms: _68  and  _69
REMARK   28  A    between atoms: _68  and  _71
REMARK   29  A    between atoms: _71  and  _72
REMARK   30  A    between atoms: _72  and  _73
REMARK   31  A    between atoms: _73  and  _74
REMARK   32  A    between atoms: _74  and  _75
REMARK   33  A    between atoms: _79  and  _81
REMARK   34  A    between atoms: _81  and  _82
REMARK   35  A    between atoms: _81  and  _84
REMARK   36  A    between atoms: _84  and  _85
REMARK   37  A    between atoms: _85  and  _86
REMARK   38  A    between atoms: _89  and  _91
REMARK   39  A    between atoms: _91  and  _92
REMARK   40  A    between atoms: _91  and  _94
REMARK   41  A    between atoms: _94  and  _95
REMARK   42  A    between atoms: _98  and  _100
REMARK   43  A    between atoms: _100  and  _101
REMARK   44  A    between atoms: _103  and  _105
REMARK   45  A    between atoms: _105  and  _106
REMARK   46  A    between atoms: _109  and  _111
REMARK   47  A    between atoms: _111  and  _112
REMARK   48  A    between atoms: _111  and  _114
REMARK   49  A    between atoms: _114  and  _115
REMARK   50  A    between atoms: _120  and  _121
REMARK   51  A    between atoms: _123  and  _125
REMARK   52  A    between atoms: _125  and  _126
REMARK   53  A    between atoms: _125  and  _128
REMARK   54  A    between atoms: _130  and  _132
REMARK   55  A    between atoms: _132  and  _133
REMARK   56  A    between atoms: _135  and  _137
REMARK   57  A    between atoms: _137  and  _138
REMARK   58  A    between atoms: _137  and  _140
REMARK   59  A    between atoms: _140  and  _141
REMARK   60  A    between atoms: _144  and  _146
REMARK   61  A    between atoms: _146  and  _147
REMARK   62  A    between atoms: _146  and  _149
REMARK   63  A    between atoms: _150  and  _151
REMARK   64  A    between atoms: _153  and  _155
REMARK   65  A    between atoms: _155  and  _156
REMARK   66  A    between atoms: _155  and  _158
REMARK   67  A    between atoms: _158  and  _159
REMARK   68  A    between atoms: _159  and  _160
REMARK   69  A    between atoms: _163  and  _165
REMARK   70  A    between atoms: _165  and  _166
REMARK   71  A    between atoms: _165  and  _168
REMARK   72  A    between atoms: _168  and  _169
REMARK   73  A    between atoms: _172  and  _174
REMARK   74  A    between atoms: _174  and  _175
REMARK   75  A    between atoms: _174  and  _177
REMARK   76  A    between atoms: _177  and  _178
REMARK   77  A    between atoms: _184  and  _185
REMARK   78  A    between atoms: _190  and  _192
REMARK   79  A    between atoms: _192  and  _193
REMARK   80  A    between atoms: _192  and  _195
REMARK   81  A    between atoms: _195  and  _196
REMARK   82  A    between atoms: _199  and  _201
REMARK   83  A    between atoms: _201  and  _202
REMARK   84  A    between atoms: _201  and  _204
REMARK   85  A    between atoms: _206  and  _208
REMARK   86  A    between atoms: _208  and  _209
REMARK   87  A    between atoms: _212  and  _214
REMARK   88  A    between atoms: _214  and  _215
REMARK   89  A    between atoms: _214  and  _217
REMARK   90  A    between atoms: _217  and  _218
REMARK   91  A    between atoms: _221  and  _223
REMARK   92  A    between atoms: _223  and  _224
REMARK   93  A    between atoms: _223  and  _226
REMARK   94  A    between atoms: _226  and  _227
REMARK   95  A    between atoms: _230  and  _232
REMARK   96  A    between atoms: _232  and  _233
REMARK   97  A    between atoms: _232  and  _235
REMARK   98  A    between atoms: _235  and  _236
REMARK   99  A    between atoms: _241  and  _243
REMARK  100  A    between atoms: _243  and  _244
REMARK  101  A    between atoms: _246  and  _248
REMARK  102  A    between atoms: _248  and  _249
REMARK  103  A    between atoms: _252  and  _254
REMARK  104  A    between atoms: _254  and  _255
REMARK  105  A    between atoms: _254  and  _257
REMARK  106  A    between atoms: _257  and  _258
REMARK  107  A    between atoms: _260  and  _262
REMARK  108  A    between atoms: _262  and  _263
REMARK  109  A    between atoms: _262  and  _265
REMARK  110  A    between atoms: _265  and  _266
REMARK  111  A    between atoms: _266  and  _267
REMARK  112  A    between atoms: _272  and  _274
REMARK  113  A    between atoms: _274  and  _275
REMARK  114  A    between atoms: _274  and  _277
REMARK  115  A    between atoms: _277  and  _278
REMARK  116  A    between atoms: _281  and  _283
REMARK  117  A    between atoms: _283  and  _284
REMARK  118  A    between atoms: _283  and  _286
REMARK  119  A    between atoms: _286  and  _287
REMARK  120  A    between atoms: _290  and  _292
REMARK  121  A    between atoms: _292  and  _293
REMARK  122  A    between atoms: _292  and  _295
REMARK  123  A    between atoms: _295  and  _296
REMARK  124  A    between atoms: _299  and  _301
REMARK  125  A    between atoms: _301  and  _302
REMARK  126  A    between atoms: _301  and  _304
REMARK  127  A    between atoms: _304  and  _305
REMARK  128  A    between atoms: _311  and  _313
REMARK  129  A    between atoms: _313  and  _314
REMARK  130  A    between atoms: _313  and  _316
REMARK  131  A    between atoms: _316  and  _317
REMARK  132  A    between atoms: _320  and  _322
REMARK  133  A    between atoms: _322  and  _323
REMARK  134  A    between atoms: _322  and  _325
REMARK  135  A    between atoms: _325  and  _326
REMARK  136  A    between atoms: _326  and  _327
REMARK  137  A    between atoms: _327  and  MG_517
REMARK  138  A    between atoms: _329  and  _331
REMARK  139  A    between atoms: _331  and  _332
REMARK  140  A    between atoms: _331  and  _334
REMARK  141  A    between atoms: _334  and  _335
REMARK  142  A    between atoms: _340  and  _342
REMARK  143  A    between atoms: _342  and  _343
REMARK  144  A    between atoms: _342  and  _345
REMARK  145  A    between atoms: _345  and  _346
REMARK  146  A    between atoms: _356  and  _358
REMARK  147  A    between atoms: _358  and  _359
REMARK  148  A    between atoms: _358  and  _361
REMARK  149  A    between atoms: _361  and  _362
REMARK  150  A    between atoms: _362  and  _363
REMARK  151  A    between atoms: _363  and  _364
REMARK  152  A    between atoms: _364  and  _365
REMARK  153  A    between atoms: _369  and  _371
REMARK  154  A    between atoms: _371  and  _372
REMARK  155  A    between atoms: _371  and  _374
REMARK  156  A    between atoms: _374  and  _375
REMARK  157  A    between atoms: _378  and  _380
REMARK  158  A    between atoms: _380  and  _381
REMARK  159  A    between atoms: _380  and  _383
REMARK  160  A    between atoms: _383  and  _384
REMARK  161  A    between atoms: _384  and  _385
REMARK  162  A    between atoms: _385  and  _386
REMARK  163  A    between atoms: _395  and  _397
REMARK  164  A    between atoms: _397  and  _398
REMARK  165  A    between atoms: _397  and  _400
REMARK  166  A    between atoms: _400  and  _401
REMARK  167  A    between atoms: _406  and  _407
REMARK  168  A    between atoms: _409  and  _411
REMARK  169  A    between atoms: _411  and  _412
REMARK  170  A    between atoms: _411  and  _414
REMARK  171  A    between atoms: _414  and  _415
REMARK  172  A    between atoms: _418  and  _420
REMARK  173  A    between atoms: _420  and  _421
REMARK  174  A    between atoms: _420  and  _423
REMARK  175  A    between atoms: _423  and  _424
REMARK  176  A    between atoms: _427  and  _429
REMARK  177  A    between atoms: _429  and  _430
REMARK  178  A    between atoms: _429  and  _432
REMARK  179  A    between atoms: _432  and  _433
REMARK  180  A    between atoms: _438  and  _440
REMARK  181  A    between atoms: _440  and  _441
REMARK  182  A    between atoms: _440  and  _443
REMARK  183  A    between atoms: _446  and  _448
REMARK  184  A    between atoms: _448  and  _449
REMARK  185  A    between atoms: _448  and  _451
REMARK  186  A    between atoms: _455  and  _456
REMARK  187  A    between atoms: _461  and  _463
REMARK  188  A    between atoms: _463  and  _464
REMARK  189  A    between atoms: _466  and  _468
REMARK  190  A    between atoms: _468  and  _469
REMARK  191  A    between atoms: _468  and  _471
REMARK  192  A    between atoms: _471  and  _472
REMARK  193  A    between atoms: _475  and  _477
REMARK  194  A    between atoms: _477  and  _478
REMARK  195  A    between atoms: _477  and  _480
REMARK  196  A    between atoms: _480  and  _481
REMARK  197  A    between atoms: _484  and  _486
REMARK  198  A    between atoms: _486  and  _487
REMARK  199  A    between atoms: _486  and  _489
REMARK  200  A    between atoms: _489  and  _490
REMARK  201  A    between atoms: _490  and  _491
REMARK  202  A    between atoms: _494  and  _496
REMARK  203  A    between atoms: _496  and  _497
REMARK  204  A    between atoms: _496  and  _499
REMARK  205  A    between atoms: _499  and  _500
REMARK  206  A    between atoms: _505  and  _506
REMARK  207  A    between atoms: _508  and  _510
REMARK  208  A    between atoms: _510  and  _511
REMARK  209  A    between atoms: _510  and  _513
REMARK  210  A    between atoms: _513  and  _514
REMARK  211  A    between atoms: _514  and  _515
REMARK                            x       y       z     vdW  Elec       q    Type
REMARK                         _______ _______ _______ _____ _____    ______ ____
ROOT
ATOM      1  O   HOH     1      31.441  -9.554 -12.687  0.00  0.00    +0.000 OA
ENDROOT
TORSDOF 0
REMARK  Name = ../refined-set-2016/3ozt/3ozt_pocket.pdb
REMARK  211 active torsions:
REMARK  status: ('A' for Active; 'I' for Inactive)
REMARK    1  A    between atoms: _1  and  _3
REMARK    2  A    between atoms: _3  and  _4
REMARK    3  A    between atoms: _3  and  _6
REMARK    4  A    between atoms: _6  and  _7
REMARK    5  A    between atoms: _7  and  _8
REMARK    6  A    between atoms: _11  and  _13
REMARK    7  A    between atoms: _13  and  _14
REMARK    8  A    between atoms: _13  and  _16
REMARK    9  A    between atoms: _16  and  _17
REMARK   10  A    between atoms: _27  and  _29
REMARK   11  A    between atoms: _29  and  _30
REMARK   12  A    between atoms: _33  and  _35
REMARK   13  A    between atoms: _35  and  _36
REMARK   14  A    between atoms: _35  and  _38
REMARK   15  A    between atoms: _38  and  _39
REMARK   16  A    between atoms: _39  and  _40
REMARK   17  A    between atoms: _42  and  _44
REMARK   18  A    between atoms: _44  and  _45
REMARK   19  A    between atoms: _44  and  _47
REMARK   20  A    between atoms: _47  and  _48
REMARK   21  A    between atoms: _53  and  _55
REMARK   22  A    between atoms: _55  and  _56
REMARK   23  A    between atoms: _55  and  _58
REMARK   24  A    between atoms: _61  and  _63
REMARK   25  A    between atoms: _63  and  _64
REMARK   26  A    between atoms: _66  and  _68
REMARK   27  A    between atoms: _68  and  _69
REMARK   28  A    between atoms: _68  and  _71
REMARK   29  A    between atoms: _71  and  _72
REMARK   30  A    between atoms: _72  and  _73
REMARK   31  A    between atoms: _73  and  _74
REMARK   32  A    between atoms: _74  and  _75
REMARK   33  A    between atoms: _79  and  _81
REMARK   34  A    between atoms: _81  and  _82
REMARK   35  A    between atoms: _81  and  _84
REMARK   36  A    between atoms: _84  and  _85
REMARK   37  A    between atoms: _85  and  _86
REMARK   38  A    between atoms: _89  and  _91
REMARK   39  A    between atoms: _91  and  _92
REMARK   40  A    between atoms: _91  and  _94
REMARK   41  A    between atoms: _94  and  _95
REMARK   42  A    between atoms: _98  and  _100
REMARK   43  A    between atoms: _100  and  _101
REMARK   44  A    between atoms: _103  and  _105
REMARK   45  A    between atoms: _105  and  _106
REMARK   46  A    between atoms: _109  and  _111
REMARK   47  A    between atoms: _111  and  _112
REMARK   48  A    between atoms: _111  and  _114
REMARK   49  A    between atoms: _114  and  _115
REMARK   50  A    between atoms: _120  and  _121
REMARK   51  A    between atoms: _123  and  _125
REMARK   52  A    between atoms: _125  and  _126
REMARK   53  A    between atoms: _125  and  _128
REMARK   54  A    between atoms: _130  and  _132
REMARK   55  A    between atoms: _132  and  _133
REMARK   56  A    between atoms: _135  and  _137
REMARK   57  A    between atoms: _137  and  _138
REMARK   58  A    between atoms: _137  and  _140
REMARK   59  A    between atoms: _140  and  _141
REMARK   60  A    between atoms: _144  and  _146
REMARK   61  A    between atoms: _146  and  _147
REMARK   62  A    between atoms: _146  and  _149
REMARK   63  A    between atoms: _150  and  _151
REMARK   64  A    between atoms: _153  and  _155
REMARK   65  A    between atoms: _155  and  _156
REMARK   66  A    between atoms: _155  and  _158
REMARK   67  A    between atoms: _158  and  _159
REMARK   68  A    between atoms: _159  and  _160
REMARK   69  A    between atoms: _163  and  _165
REMARK   70  A    between atoms: _165  and  _166
REMARK   71  A    between atoms: _165  and  _168
REMARK   72  A    between atoms: _168  and  _169
REMARK   73  A    between atoms: _172  and  _174
REMARK   74  A    between atoms: _174  and  _175
REMARK   75  A    between atoms: _174  and  _177
REMARK   76  A    between atoms: _177  and  _178
REMARK   77  A    between atoms: _184  and  _185
REMARK   78  A    between atoms: _190  and  _192
REMARK   79  A    between atoms: _192  and  _193
REMARK   80  A    between atoms: _192  and  _195
REMARK   81  A    between atoms: _195  and  _196
REMARK   82  A    between atoms: _199  and  _201
REMARK   83  A    between atoms: _201  and  _202
REMARK   84  A    between atoms: _201  and  _204
REMARK   85  A    between atoms: _206  and  _208
REMARK   86  A    between atoms: _208  and  _209
REMARK   87  A    between atoms: _212  and  _214
REMARK   88  A    between atoms: _214  and  _215
REMARK   89  A    between atoms: _214  and  _217
REMARK   90  A    between atoms: _217  and  _218
REMARK   91  A    between atoms: _221  and  _223
REMARK   92  A    between atoms: _223  and  _224
REMARK   93  A    between atoms: _223  and  _226
REMARK   94  A    between atoms: _226  and  _227
REMARK   95  A    between atoms: _230  and  _232
REMARK   96  A    between atoms: _232  and  _233
REMARK   97  A    between atoms: _232  and  _235
REMARK   98  A    between atoms: _235  and  _236
REMARK   99  A    between atoms: _241  and  _243
REMARK  100  A    between atoms: _243  and  _244
REMARK  101  A    between atoms: _246  and  _248
REMARK  102  A    between atoms: _248  and  _249
REMARK  103  A    between atoms: _252  and  _254
REMARK  104  A    between atoms: _254  and  _255
REMARK  105  A    between atoms: _254  and  _257
REMARK  106  A    between atoms: _257  and  _258
REMARK  107  A    between atoms: _260  and  _262
REMARK  108  A    between atoms: _262  and  _263
REMARK  109  A    between atoms: _262  and  _265
REMARK  110  A    between atoms: _265  and  _266
REMARK  111  A    between atoms: _266  and  _267
REMARK  112  A    between atoms: _272  and  _274
REMARK  113  A    between atoms: _274  and  _275
REMARK  114  A    between atoms: _274  and  _277
REMARK  115  A    between atoms: _277  and  _278
REMARK  116  A    between atoms: _281  and  _283
REMARK  117  A    between atoms: _283  and  _284
REMARK  118  A    between atoms: _283  and  _286
REMARK  119  A    between atoms: _286  and  _287
REMARK  120  A    between atoms: _290  and  _292
REMARK  121  A    between atoms: _292  and  _293
REMARK  122  A    between atoms: _292  and  _295
REMARK  123  A    between atoms: _295  and  _296
REMARK  124  A    between atoms: _299  and  _301
REMARK  125  A    between atoms: _301  and  _302
REMARK  126  A    between atoms: _301  and  _304
REMARK  127  A    between atoms: _304  and  _305
REMARK  128  A    between atoms: _311  and  _313
REMARK  129  A    between atoms: _313  and  _314
REMARK  130  A    between atoms: _313  and  _316
REMARK  131  A    between atoms: _316  and  _317
REMARK  132  A    between atoms: _320  and  _322
REMARK  133  A    between atoms: _322  and  _323
REMARK  134  A    between atoms: _322  and  _325
REMARK  135  A    between atoms: _325  and  _326
REMARK  136  A    between atoms: _326  and  _327
REMARK  137  A    between atoms: _327  and  MG_517
REMARK  138  A    between atoms: _329  and  _331
REMARK  139  A    between atoms: _331  and  _332
REMARK  140  A    between atoms: _331  and  _334
REMARK  141  A    between atoms: _334  and  _335
REMARK  142  A    between atoms: _340  and  _342
REMARK  143  A    between atoms: _342  and  _343
REMARK  144  A    between atoms: _342  and  _345
REMARK  145  A    between atoms: _345  and  _346
REMARK  146  A    between atoms: _356  and  _358
REMARK  147  A    between atoms: _358  and  _359
REMARK  148  A    between atoms: _358  and  _361
REMARK  149  A    between atoms: _361  and  _362
REMARK  150  A    between atoms: _362  and  _363
REMARK  151  A    between atoms: _363  and  _364
REMARK  152  A    between atoms: _364  and  _365
REMARK  153  A    between atoms: _369  and  _371
REMARK  154  A    between atoms: _371  and  _372
REMARK  155  A    between atoms: _371  and  _374
REMARK  156  A    between atoms: _374  and  _375
REMARK  157  A    between atoms: _378  and  _380
REMARK  158  A    between atoms: _380  and  _381
REMARK  159  A    between atoms: _380  and  _383
REMARK  160  A    between atoms: _383  and  _384
REMARK  161  A    between atoms: _384  and  _385
REMARK  162  A    between atoms: _385  and  _386
REMARK  163  A    between atoms: _395  and  _397
REMARK  164  A    between atoms: _397  and  _398
REMARK  165  A    between atoms: _397  and  _400
REMARK  166  A    between atoms: _400  and  _401
REMARK  167  A    between atoms: _406  and  _407
REMARK  168  A    between atoms: _409  and  _411
REMARK  169  A    between atoms: _411  and  _412
REMARK  170  A    between atoms: _411  and  _414
REMARK  171  A    between atoms: _414  and  _415
REMARK  172  A    between atoms: _418  and  _420
REMARK  173  A    between atoms: _420  and  _421
REMARK  174  A    between atoms: _420  and  _423
REMARK  175  A    between atoms: _423  and  _424
REMARK  176  A    between atoms: _427  and  _429
REMARK  177  A    between atoms: _429  and  _430
REMARK  178  A    between atoms: _429  and  _432
REMARK  179  A    between atoms: _432  and  _433
REMARK  180  A    between atoms: _438  and  _440
REMARK  181  A    between atoms: _440  and  _441
REMARK  182  A    between atoms: _440  and  _443
REMARK  183  A    between atoms: _446  and  _448
REMARK  184  A    between atoms: _448  and  _449
REMARK  185  A    between atoms: _448  and  _451
REMARK  186  A    between atoms: _455  and  _456
REMARK  187  A    between atoms: _461  and  _463
REMARK  188  A    between atoms: _463  and  _464
REMARK  189  A    between atoms: _466  and  _468
REMARK  190  A    between atoms: _468  and  _469
REMARK  191  A    between atoms: _468  and  _471
REMARK  192  A    between atoms: _471  and  _472
REMARK  193  A    between atoms: _475  and  _477
REMARK  194  A    between atoms: _477  and  _478
REMARK  195  A    between atoms: _477  and  _480
REMARK  196  A    between atoms: _480  and  _481
REMARK  197  A    between atoms: _484  and  _486
REMARK  198  A    between atoms: _486  and  _487
REMARK  199  A    between atoms: _486  and  _489
REMARK  200  A    between atoms: _489  and  _490
REMARK  201  A    between atoms: _490  and  _491
REMARK  202  A    between atoms: _494  and  _496
REMARK  203  A    between atoms: _496  and  _497
REMARK  204  A    between atoms: _496  and  _499
REMARK  205  A    between atoms: _499  and  _500
REMARK  206  A    between atoms: _505  and  _506
REMARK  207  A    between atoms: _508  and  _510
REMARK  208  A    between atoms: _510  and  _511
REMARK  209  A    between atoms: _510  and  _513
REMARK  210  A    between atoms: _513  and  _514
REMARK  211  A    between atoms: _514  and  _515
REMARK                            x       y       z     vdW  Elec       q    Type
REMARK                         _______ _______ _______ _____ _____    ______ ____
ROOT
ATOM      1  O   HOH     1      35.421   2.734 -21.578  0.00  0.00    +0.000 OA
ENDROOT
TORSDOF 0
REMARK  Name = ../refined-set-2016/3ozt/3ozt_pocket.pdb
REMARK  211 active torsions:
REMARK  status: ('A' for Active; 'I' for Inactive)
REMARK    1  A    between atoms: _1  and  _3
REMARK    2  A    between atoms: _3  and  _4
REMARK    3  A    between atoms: _3  and  _6
REMARK    4  A    between atoms: _6  and  _7
REMARK    5  A    between atoms: _7  and  _8
REMARK    6  A    between atoms: _11  and  _13
REMARK    7  A    between atoms: _13  and  _14
REMARK    8  A    between atoms: _13  and  _16
REMARK    9  A    between atoms: _16  and  _17
REMARK   10  A    between atoms: _27  and  _29
REMARK   11  A    between atoms: _29  and  _30
REMARK   12  A    between atoms: _33  and  _35
REMARK   13  A    between atoms: _35  and  _36
REMARK   14  A    between atoms: _35  and  _38
REMARK   15  A    between atoms: _38  and  _39
REMARK   16  A    between atoms: _39  and  _40
REMARK   17  A    between atoms: _42  and  _44
REMARK   18  A    between atoms: _44  and  _45
REMARK   19  A    between atoms: _44  and  _47
REMARK   20  A    between atoms: _47  and  _48
REMARK   21  A    between atoms: _53  and  _55
REMARK   22  A    between atoms: _55  and  _56
REMARK   23  A    between atoms: _55  and  _58
REMARK   24  A    between atoms: _61  and  _63
REMARK   25  A    between atoms: _63  and  _64
REMARK   26  A    between atoms: _66  and  _68
REMARK   27  A    between atoms: _68  and  _69
REMARK   28  A    between atoms: _68  and  _71
REMARK   29  A    between atoms: _71  and  _72
REMARK   30  A    between atoms: _72  and  _73
REMARK   31  A    between atoms: _73  and  _74
REMARK   32  A    between atoms: _74  and  _75
REMARK   33  A    between atoms: _79  and  _81
REMARK   34  A    between atoms: _81  and  _82
REMARK   35  A    between atoms: _81  and  _84
REMARK   36  A    between atoms: _84  and  _85
REMARK   37  A    between atoms: _85  and  _86
REMARK   38  A    between atoms: _89  and  _91
REMARK   39  A    between atoms: _91  and  _92
REMARK   40  A    between atoms: _91  and  _94
REMARK   41  A    between atoms: _94  and  _95
REMARK   42  A    between atoms: _98  and  _100
REMARK   43  A    between atoms: _100  and  _101
REMARK   44  A    between atoms: _103  and  _105
REMARK   45  A    between atoms: _105  and  _106
REMARK   46  A    between atoms: _109  and  _111
REMARK   47  A    between atoms: _111  and  _112
REMARK   48  A    between atoms: _111  and  _114
REMARK   49  A    between atoms: _114  and  _115
REMARK   50  A    between atoms: _120  and  _121
REMARK   51  A    between atoms: _123  and  _125
REMARK   52  A    between atoms: _125  and  _126
REMARK   53  A    between atoms: _125  and  _128
REMARK   54  A    between atoms: _130  and  _132
REMARK   55  A    between atoms: _132  and  _133
REMARK   56  A    between atoms: _135  and  _137
REMARK   57  A    between atoms: _137  and  _138
REMARK   58  A    between atoms: _137  and  _140
REMARK   59  A    between atoms: _140  and  _141
REMARK   60  A    between atoms: _144  and  _146
REMARK   61  A    between atoms: _146  and  _147
REMARK   62  A    between atoms: _146  and  _149
REMARK   63  A    between atoms: _150  and  _151
REMARK   64  A    between atoms: _153  and  _155
REMARK   65  A    between atoms: _155  and  _156
REMARK   66  A    between atoms: _155  and  _158
REMARK   67  A    between atoms: _158  and  _159
REMARK   68  A    between atoms: _159  and  _160
REMARK   69  A    between atoms: _163  and  _165
REMARK   70  A    between atoms: _165  and  _166
REMARK   71  A    between atoms: _165  and  _168
REMARK   72  A    between atoms: _168  and  _169
REMARK   73  A    between atoms: _172  and  _174
REMARK   74  A    between atoms: _174  and  _175
REMARK   75  A    between atoms: _174  and  _177
REMARK   76  A    between atoms: _177  and  _178
REMARK   77  A    between atoms: _184  and  _185
REMARK   78  A    between atoms: _190  and  _192
REMARK   79  A    between atoms: _192  and  _193
REMARK   80  A    between atoms: _192  and  _195
REMARK   81  A    between atoms: _195  and  _196
REMARK   82  A    between atoms: _199  and  _201
REMARK   83  A    between atoms: _201  and  _202
REMARK   84  A    between atoms: _201  and  _204
REMARK   85  A    between atoms: _206  and  _208
REMARK   86  A    between atoms: _208  and  _209
REMARK   87  A    between atoms: _212  and  _214
REMARK   88  A    between atoms: _214  and  _215
REMARK   89  A    between atoms: _214  and  _217
REMARK   90  A    between atoms: _217  and  _218
REMARK   91  A    between atoms: _221  and  _223
REMARK   92  A    between atoms: _223  and  _224
REMARK   93  A    between atoms: _223  and  _226
REMARK   94  A    between atoms: _226  and  _227
REMARK   95  A    between atoms: _230  and  _232
REMARK   96  A    between atoms: _232  and  _233
REMARK   97  A    between atoms: _232  and  _235
REMARK   98  A    between atoms: _235  and  _236
REMARK   99  A    between atoms: _241  and  _243
REMARK  100  A    between atoms: _243  and  _244
REMARK  101  A    between atoms: _246  and  _248
REMARK  102  A    between atoms: _248  and  _249
REMARK  103  A    between atoms: _252  and  _254
REMARK  104  A    between atoms: _254  and  _255
REMARK  105  A    between atoms: _254  and  _257
REMARK  106  A    between atoms: _257  and  _258
REMARK  107  A    between atoms: _260  and  _262
REMARK  108  A    between atoms: _262  and  _263
REMARK  109  A    between atoms: _262  and  _265
REMARK  110  A    between atoms: _265  and  _266
REMARK  111  A    between atoms: _266  and  _267
REMARK  112  A    between atoms: _272  and  _274
REMARK  113  A    between atoms: _274  and  _275
REMARK  114  A    between atoms: _274  and  _277
REMARK  115  A    between atoms: _277  and  _278
REMARK  116  A    between atoms: _281  and  _283
REMARK  117  A    between atoms: _283  and  _284
REMARK  118  A    between atoms: _283  and  _286
REMARK  119  A    between atoms: _286  and  _287
REMARK  120  A    between atoms: _290  and  _292
REMARK  121  A    between atoms: _292  and  _293
REMARK  122  A    between atoms: _292  and  _295
REMARK  123  A    between atoms: _295  and  _296
REMARK  124  A    between atoms: _299  and  _301
REMARK  125  A    between atoms: _301  and  _302
REMARK  126  A    between atoms: _301  and  _304
REMARK  127  A    between atoms: _304  and  _305
REMARK  128  A    between atoms: _311  and  _313
REMARK  129  A    between atoms: _313  and  _314
REMARK  130  A    between atoms: _313  and  _316
REMARK  131  A    between atoms: _316  and  _317
REMARK  132  A    between atoms: _320  and  _322
REMARK  133  A    between atoms: _322  and  _323
REMARK  134  A    between atoms: _322  and  _325
REMARK  135  A    between atoms: _325  and  _326
REMARK  136  A    between atoms: _326  and  _327
REMARK  137  A    between atoms: _327  and  MG_517
REMARK  138  A    between atoms: _329  and  _331
REMARK  139  A    between atoms: _331  and  _332
REMARK  140  A    between atoms: _331  and  _334
REMARK  141  A    between atoms: _334  and  _335
REMARK  142  A    between atoms: _340  and  _342
REMARK  143  A    between atoms: _342  and  _343
REMARK  144  A    between atoms: _342  and  _345
REMARK  145  A    between atoms: _345  and  _346
REMARK  146  A    between atoms: _356  and  _358
REMARK  147  A    between atoms: _358  and  _359
REMARK  148  A    between atoms: _358  and  _361
REMARK  149  A    between atoms: _361  and  _362
REMARK  150  A    between atoms: _362  and  _363
REMARK  151  A    between atoms: _363  and  _364
REMARK  152  A    between atoms: _364  and  _365
REMARK  153  A    between atoms: _369  and  _371
REMARK  154  A    between atoms: _371  and  _372
REMARK  155  A    between atoms: _371  and  _374
REMARK  156  A    between atoms: _374  and  _375
REMARK  157  A    between atoms: _378  and  _380
REMARK  158  A    between atoms: _380  and  _381
REMARK  159  A    between atoms: _380  and  _383
REMARK  160  A    between atoms: _383  and  _384
REMARK  161  A    between atoms: _384  and  _385
REMARK  162  A    between atoms: _385  and  _386
REMARK  163  A    between atoms: _395  and  _397
REMARK  164  A    between atoms: _397  and  _398
REMARK  165  A    between atoms: _397  and  _400
REMARK  166  A    between atoms: _400  and  _401
REMARK  167  A    between atoms: _406  and  _407
REMARK  168  A    between atoms: _409  and  _411
REMARK  169  A    between atoms: _411  and  _412
REMARK  170  A    between atoms: _411  and  _414
REMARK  171  A    between atoms: _414  and  _415
REMARK  172  A    between atoms: _418  and  _420
REMARK  173  A    between atoms: _420  and  _421
REMARK  174  A    between atoms: _420  and  _423
REMARK  175  A    between atoms: _423  and  _424
REMARK  176  A    between atoms: _427  and  _429
REMARK  177  A    between atoms: _429  and  _430
REMARK  178  A    between atoms: _429  and  _432
REMARK  179  A    between atoms: _432  and  _433
REMARK  180  A    between atoms: _438  and  _440
REMARK  181  A    between atoms: _440  and  _441
REMARK  182  A    between atoms: _440  and  _443
REMARK  183  A    between atoms: _446  and  _448
REMARK  184  A    between atoms: _448  and  _449
REMARK  185  A    between atoms: _448  and  _451
REMARK  186  A    between atoms: _455  and  _456
REMARK  187  A    between atoms: _461  and  _463
REMARK  188  A    between atoms: _463  and  _464
REMARK  189  A    between atoms: _466  and  _468
REMARK  190  A    between atoms: _468  and  _469
REMARK  191  A    between atoms: _468  and  _471
REMARK  192  A    between atoms: _471  and  _472
REMARK  193  A    between atoms: _475  and  _477
REMARK  194  A    between atoms: _477  and  _478
REMARK  195  A    between atoms: _477  and  _480
REMARK  196  A    between atoms: _480  and  _481
REMARK  197  A    between atoms: _484  and  _486
REMARK  198  A    between atoms: _486  and  _487
REMARK  199  A    between atoms: _486  and  _489
REMARK  200  A    between atoms: _489  and  _490
REMARK  201  A    between atoms: _490  and  _491
REMARK  202  A    between atoms: _494  and  _496
REMARK  203  A    between atoms: _496  and  _497
REMARK  204  A    between atoms: _496  and  _499
REMARK  205  A    between atoms: _499  and  _500
REMARK  206  A    between atoms: _505  and  _506
REMARK  207  A    between atoms: _508  and  _510
REMARK  208  A    between atoms: _510  and  _511
REMARK  209  A    between atoms: _510  and  _513
REMARK  210  A    between atoms: _513  and  _514
REMARK  211  A    between atoms: _514  and  _515
REMARK                            x       y       z     vdW  Elec       q    Type
REMARK                         _______ _______ _______ _____ _____    ______ ____
ROOT
ATOM      1  O   HOH     1      40.760  -9.258 -11.501  0.00  0.00    +0.000 OA
ENDROOT
TORSDOF 0
REMARK  Name = ../refined-set-2016/3ozt/3ozt_pocket.pdb
REMARK  211 active torsions:
REMARK  status: ('A' for Active; 'I' for Inactive)
REMARK    1  A    between atoms: _1  and  _3
REMARK    2  A    between atoms: _3  and  _4
REMARK    3  A    between atoms: _3  and  _6
REMARK    4  A    between atoms: _6  and  _7
REMARK    5  A    between atoms: _7  and  _8
REMARK    6  A    between atoms: _11  and  _13
REMARK    7  A    between atoms: _13  and  _14
REMARK    8  A    between atoms: _13  and  _16
REMARK    9  A    between atoms: _16  and  _17
REMARK   10  A    between atoms: _27  and  _29
REMARK   11  A    between atoms: _29  and  _30
REMARK   12  A    between atoms: _33  and  _35
REMARK   13  A    between atoms: _35  and  _36
REMARK   14  A    between atoms: _35  and  _38
REMARK   15  A    between atoms: _38  and  _39
REMARK   16  A    between atoms: _39  and  _40
REMARK   17  A    between atoms: _42  and  _44
REMARK   18  A    between atoms: _44  and  _45
REMARK   19  A    between atoms: _44  and  _47
REMARK   20  A    between atoms: _47  and  _48
REMARK   21  A    between atoms: _53  and  _55
REMARK   22  A    between atoms: _55  and  _56
REMARK   23  A    between atoms: _55  and  _58
REMARK   24  A    between atoms: _61  and  _63
REMARK   25  A    between atoms: _63  and  _64
REMARK   26  A    between atoms: _66  and  _68
REMARK   27  A    between atoms: _68  and  _69
REMARK   28  A    between atoms: _68  and  _71
REMARK   29  A    between atoms: _71  and  _72
REMARK   30  A    between atoms: _72  and  _73
REMARK   31  A    between atoms: _73  and  _74
REMARK   32  A    between atoms: _74  and  _75
REMARK   33  A    between atoms: _79  and  _81
REMARK   34  A    between atoms: _81  and  _82
REMARK   35  A    between atoms: _81  and  _84
REMARK   36  A    between atoms: _84  and  _85
REMARK   37  A    between atoms: _85  and  _86
REMARK   38  A    between atoms: _89  and  _91
REMARK   39  A    between atoms: _91  and  _92
REMARK   40  A    between atoms: _91  and  _94
REMARK   41  A    between atoms: _94  and  _95
REMARK   42  A    between atoms: _98  and  _100
REMARK   43  A    between atoms: _100  and  _101
REMARK   44  A    between atoms: _103  and  _105
REMARK   45  A    between atoms: _105  and  _106
REMARK   46  A    between atoms: _109  and  _111
REMARK   47  A    between atoms: _111  and  _112
REMARK   48  A    between atoms: _111  and  _114
REMARK   49  A    between atoms: _114  and  _115
REMARK   50  A    between atoms: _120  and  _121
REMARK   51  A    between atoms: _123  and  _125
REMARK   52  A    between atoms: _125  and  _126
REMARK   53  A    between atoms: _125  and  _128
REMARK   54  A    between atoms: _130  and  _132
REMARK   55  A    between atoms: _132  and  _133
REMARK   56  A    between atoms: _135  and  _137
REMARK   57  A    between atoms: _137  and  _138
REMARK   58  A    between atoms: _137  and  _140
REMARK   59  A    between atoms: _140  and  _141
REMARK   60  A    between atoms: _144  and  _146
REMARK   61  A    between atoms: _146  and  _147
REMARK   62  A    between atoms: _146  and  _149
REMARK   63  A    between atoms: _150  and  _151
REMARK   64  A    between atoms: _153  and  _155
REMARK   65  A    between atoms: _155  and  _156
REMARK   66  A    between atoms: _155  and  _158
REMARK   67  A    between atoms: _158  and  _159
REMARK   68  A    between atoms: _159  and  _160
REMARK   69  A    between atoms: _163  and  _165
REMARK   70  A    between atoms: _165  and  _166
REMARK   71  A    between atoms: _165  and  _168
REMARK   72  A    between atoms: _168  and  _169
REMARK   73  A    between atoms: _172  and  _174
REMARK   74  A    between atoms: _174  and  _175
REMARK   75  A    between atoms: _174  and  _177
REMARK   76  A    between atoms: _177  and  _178
REMARK   77  A    between atoms: _184  and  _185
REMARK   78  A    between atoms: _190  and  _192
REMARK   79  A    between atoms: _192  and  _193
REMARK   80  A    between atoms: _192  and  _195
REMARK   81  A    between atoms: _195  and  _196
REMARK   82  A    between atoms: _199  and  _201
REMARK   83  A    between atoms: _201  and  _202
REMARK   84  A    between atoms: _201  and  _204
REMARK   85  A    between atoms: _206  and  _208
REMARK   86  A    between atoms: _208  and  _209
REMARK   87  A    between atoms: _212  and  _214
REMARK   88  A    between atoms: _214  and  _215
REMARK   89  A    between atoms: _214  and  _217
REMARK   90  A    between atoms: _217  and  _218
REMARK   91  A    between atoms: _221  and  _223
REMARK   92  A    between atoms: _223  and  _224
REMARK   93  A    between atoms: _223  and  _226
REMARK   94  A    between atoms: _226  and  _227
REMARK   95  A    between atoms: _230  and  _232
REMARK   96  A    between atoms: _232  and  _233
REMARK   97  A    between atoms: _232  and  _235
REMARK   98  A    between atoms: _235  and  _236
REMARK   99  A    between atoms: _241  and  _243
REMARK  100  A    between atoms: _243  and  _244
REMARK  101  A    between atoms: _246  and  _248
REMARK  102  A    between atoms: _248  and  _249
REMARK  103  A    between atoms: _252  and  _254
REMARK  104  A    between atoms: _254  and  _255
REMARK  105  A    between atoms: _254  and  _257
REMARK  106  A    between atoms: _257  and  _258
REMARK  107  A    between atoms: _260  and  _262
REMARK  108  A    between atoms: _262  and  _263
REMARK  109  A    between atoms: _262  and  _265
REMARK  110  A    between atoms: _265  and  _266
REMARK  111  A    between atoms: _266  and  _267
REMARK  112  A    between atoms: _272  and  _274
REMARK  113  A    between atoms: _274  and  _275
REMARK  114  A    between atoms: _274  and  _277
REMARK  115  A    between atoms: _277  and  _278
REMARK  116  A    between atoms: _281  and  _283
REMARK  117  A    between atoms: _283  and  _284
REMARK  118  A    between atoms: _283  and  _286
REMARK  119  A    between atoms: _286  and  _287
REMARK  120  A    between atoms: _290  and  _292
REMARK  121  A    between atoms: _292  and  _293
REMARK  122  A    between atoms: _292  and  _295
REMARK  123  A    between atoms: _295  and  _296
REMARK  124  A    between atoms: _299  and  _301
REMARK  125  A    between atoms: _301  and  _302
REMARK  126  A    between atoms: _301  and  _304
REMARK  127  A    between atoms: _304  and  _305
REMARK  128  A    between atoms: _311  and  _313
REMARK  129  A    between atoms: _313  and  _314
REMARK  130  A    between atoms: _313  and  _316
REMARK  131  A    between atoms: _316  and  _317
REMARK  132  A    between atoms: _320  and  _322
REMARK  133  A    between atoms: _322  and  _323
REMARK  134  A    between atoms: _322  and  _325
REMARK  135  A    between atoms: _325  and  _326
REMARK  136  A    between atoms: _326  and  _327
REMARK  137  A    between atoms: _327  and  MG_517
REMARK  138  A    between atoms: _329  and  _331
REMARK  139  A    between atoms: _331  and  _332
REMARK  140  A    between atoms: _331  and  _334
REMARK  141  A    between atoms: _334  and  _335
REMARK  142  A    between atoms: _340  and  _342
REMARK  143  A    between atoms: _342  and  _343
REMARK  144  A    between atoms: _342  and  _345
REMARK  145  A    between atoms: _345  and  _346
REMARK  146  A    between atoms: _356  and  _358
REMARK  147  A    between atoms: _358  and  _359
REMARK  148  A    between atoms: _358  and  _361
REMARK  149  A    between atoms: _361  and  _362
REMARK  150  A    between atoms: _362  and  _363
REMARK  151  A    between atoms: _363  and  _364
REMARK  152  A    between atoms: _364  and  _365
REMARK  153  A    between atoms: _369  and  _371
REMARK  154  A    between atoms: _371  and  _372
REMARK  155  A    between atoms: _371  and  _374
REMARK  156  A    between atoms: _374  and  _375
REMARK  157  A    between atoms: _378  and  _380
REMARK  158  A    between atoms: _380  and  _381
REMARK  159  A    between atoms: _380  and  _383
REMARK  160  A    between atoms: _383  and  _384
REMARK  161  A    between atoms: _384  and  _385
REMARK  162  A    between atoms: _385  and  _386
REMARK  163  A    between atoms: _395  and  _397
REMARK  164  A    between atoms: _397  and  _398
REMARK  165  A    between atoms: _397  and  _400
REMARK  166  A    between atoms: _400  and  _401
REMARK  167  A    between atoms: _406  and  _407
REMARK  168  A    between atoms: _409  and  _411
REMARK  169  A    between atoms: _411  and  _412
REMARK  170  A    between atoms: _411  and  _414
REMARK  171  A    between atoms: _414  and  _415
REMARK  172  A    between atoms: _418  and  _420
REMARK  173  A    between atoms: _420  and  _421
REMARK  174  A    between atoms: _420  and  _423
REMARK  175  A    between atoms: _423  and  _424
REMARK  176  A    between atoms: _427  and  _429
REMARK  177  A    between atoms: _429  and  _430
REMARK  178  A    between atoms: _429  and  _432
REMARK  179  A    between atoms: _432  and  _433
REMARK  180  A    between atoms: _438  and  _440
REMARK  181  A    between atoms: _440  and  _441
REMARK  182  A    between atoms: _440  and  _443
REMARK  183  A    between atoms: _446  and  _448
REMARK  184  A    between atoms: _448  and  _449
REMARK  185  A    between atoms: _448  and  _451
REMARK  186  A    between atoms: _455  and  _456
REMARK  187  A    between atoms: _461  and  _463
REMARK  188  A    between atoms: _463  and  _464
REMARK  189  A    between atoms: _466  and  _468
REMARK  190  A    between atoms: _468  and  _469
REMARK  191  A    between atoms: _468  and  _471
REMARK  192  A    between atoms: _471  and  _472
REMARK  193  A    between atoms: _475  and  _477
REMARK  194  A    between atoms: _477  and  _478
REMARK  195  A    between atoms: _477  and  _480
REMARK  196  A    between atoms: _480  and  _481
REMARK  197  A    between atoms: _484  and  _486
REMARK  198  A    between atoms: _486  and  _487
REMARK  199  A    between atoms: _486  and  _489
REMARK  200  A    between atoms: _489  and  _490
REMARK  201  A    between atoms: _490  and  _491
REMARK  202  A    between atoms: _494  and  _496
REMARK  203  A    between atoms: _496  and  _497
REMARK  204  A    between atoms: _496  and  _499
REMARK  205  A    between atoms: _499  and  _500
REMARK  206  A    between atoms: _505  and  _506
REMARK  207  A    between atoms: _508  and  _510
REMARK  208  A    between atoms: _510  and  _511
REMARK  209  A    between atoms: _510  and  _513
REMARK  210  A    between atoms: _513  and  _514
REMARK  211  A    between atoms: _514  and  _515
REMARK                            x       y       z     vdW  Elec       q    Type
REMARK                         _______ _______ _______ _____ _____    ______ ____
ROOT
ATOM      1  O   HOH     1      37.132  -1.118   0.209  0.00  0.00    +0.000 OA
ENDROOT
TORSDOF 0
REMARK  Name = ../refined-set-2016/3ozt/3ozt_pocket.pdb
REMARK  211 active torsions:
REMARK  status: ('A' for Active; 'I' for Inactive)
REMARK    1  A    between atoms: _1  and  _3
REMARK    2  A    between atoms: _3  and  _4
REMARK    3  A    between atoms: _3  and  _6
REMARK    4  A    between atoms: _6  and  _7
REMARK    5  A    between atoms: _7  and  _8
REMARK    6  A    between atoms: _11  and  _13
REMARK    7  A    between atoms: _13  and  _14
REMARK    8  A    between atoms: _13  and  _16
REMARK    9  A    between atoms: _16  and  _17
REMARK   10  A    between atoms: _27  and  _29
REMARK   11  A    between atoms: _29  and  _30
REMARK   12  A    between atoms: _33  and  _35
REMARK   13  A    between atoms: _35  and  _36
REMARK   14  A    between atoms: _35  and  _38
REMARK   15  A    between atoms: _38  and  _39
REMARK   16  A    between atoms: _39  and  _40
REMARK   17  A    between atoms: _42  and  _44
REMARK   18  A    between atoms: _44  and  _45
REMARK   19  A    between atoms: _44  and  _47
REMARK   20  A    between atoms: _47  and  _48
REMARK   21  A    between atoms: _53  and  _55
REMARK   22  A    between atoms: _55  and  _56
REMARK   23  A    between atoms: _55  and  _58
REMARK   24  A    between atoms: _61  and  _63
REMARK   25  A    between atoms: _63  and  _64
REMARK   26  A    between atoms: _66  and  _68
REMARK   27  A    between atoms: _68  and  _69
REMARK   28  A    between atoms: _68  and  _71
REMARK   29  A    between atoms: _71  and  _72
REMARK   30  A    between atoms: _72  and  _73
REMARK   31  A    between atoms: _73  and  _74
REMARK   32  A    between atoms: _74  and  _75
REMARK   33  A    between atoms: _79  and  _81
REMARK   34  A    between atoms: _81  and  _82
REMARK   35  A    between atoms: _81  and  _84
REMARK   36  A    between atoms: _84  and  _85
REMARK   37  A    between atoms: _85  and  _86
REMARK   38  A    between atoms: _89  and  _91
REMARK   39  A    between atoms: _91  and  _92
REMARK   40  A    between atoms: _91  and  _94
REMARK   41  A    between atoms: _94  and  _95
REMARK   42  A    between atoms: _98  and  _100
REMARK   43  A    between atoms: _100  and  _101
REMARK   44  A    between atoms: _103  and  _105
REMARK   45  A    between atoms: _105  and  _106
REMARK   46  A    between atoms: _109  and  _111
REMARK   47  A    between atoms: _111  and  _112
REMARK   48  A    between atoms: _111  and  _114
REMARK   49  A    between atoms: _114  and  _115
REMARK   50  A    between atoms: _120  and  _121
REMARK   51  A    between atoms: _123  and  _125
REMARK   52  A    between atoms: _125  and  _126
REMARK   53  A    between atoms: _125  and  _128
REMARK   54  A    between atoms: _130  and  _132
REMARK   55  A    between atoms: _132  and  _133
REMARK   56  A    between atoms: _135  and  _137
REMARK   57  A    between atoms: _137  and  _138
REMARK   58  A    between atoms: _137  and  _140
REMARK   59  A    between atoms: _140  and  _141
REMARK   60  A    between atoms: _144  and  _146
REMARK   61  A    between atoms: _146  and  _147
REMARK   62  A    between atoms: _146  and  _149
REMARK   63  A    between atoms: _150  and  _151
REMARK   64  A    between atoms: _153  and  _155
REMARK   65  A    between atoms: _155  and  _156
REMARK   66  A    between atoms: _155  and  _158
REMARK   67  A    between atoms: _158  and  _159
REMARK   68  A    between atoms: _159  and  _160
REMARK   69  A    between atoms: _163  and  _165
REMARK   70  A    between atoms: _165  and  _166
REMARK   71  A    between atoms: _165  and  _168
REMARK   72  A    between atoms: _168  and  _169
REMARK   73  A    between atoms: _172  and  _174
REMARK   74  A    between atoms: _174  and  _175
REMARK   75  A    between atoms: _174  and  _177
REMARK   76  A    between atoms: _177  and  _178
REMARK   77  A    between atoms: _184  and  _185
REMARK   78  A    between atoms: _190  and  _192
REMARK   79  A    between atoms: _192  and  _193
REMARK   80  A    between atoms: _192  and  _195
REMARK   81  A    between atoms: _195  and  _196
REMARK   82  A    between atoms: _199  and  _201
REMARK   83  A    between atoms: _201  and  _202
REMARK   84  A    between atoms: _201  and  _204
REMARK   85  A    between atoms: _206  and  _208
REMARK   86  A    between atoms: _208  and  _209
REMARK   87  A    between atoms: _212  and  _214
REMARK   88  A    between atoms: _214  and  _215
REMARK   89  A    between atoms: _214  and  _217
REMARK   90  A    between atoms: _217  and  _218
REMARK   91  A    between atoms: _221  and  _223
REMARK   92  A    between atoms: _223  and  _224
REMARK   93  A    between atoms: _223  and  _226
REMARK   94  A    between atoms: _226  and  _227
REMARK   95  A    between atoms: _230  and  _232
REMARK   96  A    between atoms: _232  and  _233
REMARK   97  A    between atoms: _232  and  _235
REMARK   98  A    between atoms: _235  and  _236
REMARK   99  A    between atoms: _241  and  _243
REMARK  100  A    between atoms: _243  and  _244
REMARK  101  A    between atoms: _246  and  _248
REMARK  102  A    between atoms: _248  and  _249
REMARK  103  A    between atoms: _252  and  _254
REMARK  104  A    between atoms: _254  and  _255
REMARK  105  A    between atoms: _254  and  _257
REMARK  106  A    between atoms: _257  and  _258
REMARK  107  A    between atoms: _260  and  _262
REMARK  108  A    between atoms: _262  and  _263
REMARK  109  A    between atoms: _262  and  _265
REMARK  110  A    between atoms: _265  and  _266
REMARK  111  A    between atoms: _266  and  _267
REMARK  112  A    between atoms: _272  and  _274
REMARK  113  A    between atoms: _274  and  _275
REMARK  114  A    between atoms: _274  and  _277
REMARK  115  A    between atoms: _277  and  _278
REMARK  116  A    between atoms: _281  and  _283
REMARK  117  A    between atoms: _283  and  _284
REMARK  118  A    between atoms: _283  and  _286
REMARK  119  A    between atoms: _286  and  _287
REMARK  120  A    between atoms: _290  and  _292
REMARK  121  A    between atoms: _292  and  _293
REMARK  122  A    between atoms: _292  and  _295
REMARK  123  A    between atoms: _295  and  _296
REMARK  124  A    between atoms: _299  and  _301
REMARK  125  A    between atoms: _301  and  _302
REMARK  126  A    between atoms: _301  and  _304
REMARK  127  A    between atoms: _304  and  _305
REMARK  128  A    between atoms: _311  and  _313
REMARK  129  A    between atoms: _313  and  _314
REMARK  130  A    between atoms: _313  and  _316
REMARK  131  A    between atoms: _316  and  _317
REMARK  132  A    between atoms: _320  and  _322
REMARK  133  A    between atoms: _322  and  _323
REMARK  134  A    between atoms: _322  and  _325
REMARK  135  A    between atoms: _325  and  _326
REMARK  136  A    between atoms: _326  and  _327
REMARK  137  A    between atoms: _327  and  MG_517
REMARK  138  A    between atoms: _329  and  _331
REMARK  139  A    between atoms: _331  and  _332
REMARK  140  A    between atoms: _331  and  _334
REMARK  141  A    between atoms: _334  and  _335
REMARK  142  A    between atoms: _340  and  _342
REMARK  143  A    between atoms: _342  and  _343
REMARK  144  A    between atoms: _342  and  _345
REMARK  145  A    between atoms: _345  and  _346
REMARK  146  A    between atoms: _356  and  _358
REMARK  147  A    between atoms: _358  and  _359
REMARK  148  A    between atoms: _358  and  _361
REMARK  149  A    between atoms: _361  and  _362
REMARK  150  A    between atoms: _362  and  _363
REMARK  151  A    between atoms: _363  and  _364
REMARK  152  A    between atoms: _364  and  _365
REMARK  153  A    between atoms: _369  and  _371
REMARK  154  A    between atoms: _371  and  _372
REMARK  155  A    between atoms: _371  and  _374
REMARK  156  A    between atoms: _374  and  _375
REMARK  157  A    between atoms: _378  and  _380
REMARK  158  A    between atoms: _380  and  _381
REMARK  159  A    between atoms: _380  and  _383
REMARK  160  A    between atoms: _383  and  _384
REMARK  161  A    between atoms: _384  and  _385
REMARK  162  A    between atoms: _385  and  _386
REMARK  163  A    between atoms: _395  and  _397
REMARK  164  A    between atoms: _397  and  _398
REMARK  165  A    between atoms: _397  and  _400
REMARK  166  A    between atoms: _400  and  _401
REMARK  167  A    between atoms: _406  and  _407
REMARK  168  A    between atoms: _409  and  _411
REMARK  169  A    between atoms: _411  and  _412
REMARK  170  A    between atoms: _411  and  _414
REMARK  171  A    between atoms: _414  and  _415
REMARK  172  A    between atoms: _418  and  _420
REMARK  173  A    between atoms: _420  and  _421
REMARK  174  A    between atoms: _420  and  _423
REMARK  175  A    between atoms: _423  and  _424
REMARK  176  A    between atoms: _427  and  _429
REMARK  177  A    between atoms: _429  and  _430
REMARK  178  A    between atoms: _429  and  _432
REMARK  179  A    between atoms: _432  and  _433
REMARK  180  A    between atoms: _438  and  _440
REMARK  181  A    between atoms: _440  and  _441
REMARK  182  A    between atoms: _440  and  _443
REMARK  183  A    between atoms: _446  and  _448
REMARK  184  A    between atoms: _448  and  _449
REMARK  185  A    between atoms: _448  and  _451
REMARK  186  A    between atoms: _455  and  _456
REMARK  187  A    between atoms: _461  and  _463
REMARK  188  A    between atoms: _463  and  _464
REMARK  189  A    between atoms: _466  and  _468
REMARK  190  A    between atoms: _468  and  _469
REMARK  191  A    between atoms: _468  and  _471
REMARK  192  A    between atoms: _471  and  _472
REMARK  193  A    between atoms: _475  and  _477
REMARK  194  A    between atoms: _477  and  _478
REMARK  195  A    between atoms: _477  and  _480
REMARK  196  A    between atoms: _480  and  _481
REMARK  197  A    between atoms: _484  and  _486
REMARK  198  A    between atoms: _486  and  _487
REMARK  199  A    between atoms: _486  and  _489
REMARK  200  A    between atoms: _489  and  _490
REMARK  201  A    between atoms: _490  and  _491
REMARK  202  A    between atoms: _494  and  _496
REMARK  203  A    between atoms: _496  and  _497
REMARK  204  A    between atoms: _496  and  _499
REMARK  205  A    between atoms: _499  and  _500
REMARK  206  A    between atoms: _505  and  _506
REMARK  207  A    between atoms: _508  and  _510
REMARK  208  A    between atoms: _510  and  _511
REMARK  209  A    between atoms: _510  and  _513
REMARK  210  A    between atoms: _513  and  _514
REMARK  211  A    between atoms: _514  and  _515
REMARK                            x       y       z     vdW  Elec       q    Type
REMARK                         _______ _______ _______ _____ _____    ______ ____
ROOT
ATOM      1  O   HOH     1      33.480  -9.590 -15.206  0.00  0.00    +0.000 OA
ENDROOT
TORSDOF 0
REMARK  Name = ../refined-set-2016/3ozt/3ozt_pocket.pdb
REMARK  211 active torsions:
REMARK  status: ('A' for Active; 'I' for Inactive)
REMARK    1  A    between atoms: _1  and  _3
REMARK    2  A    between atoms: _3  and  _4
REMARK    3  A    between atoms: _3  and  _6
REMARK    4  A    between atoms: _6  and  _7
REMARK    5  A    between atoms: _7  and  _8
REMARK    6  A    between atoms: _11  and  _13
REMARK    7  A    between atoms: _13  and  _14
REMARK    8  A    between atoms: _13  and  _16
REMARK    9  A    between atoms: _16  and  _17
REMARK   10  A    between atoms: _27  and  _29
REMARK   11  A    between atoms: _29  and  _30
REMARK   12  A    between atoms: _33  and  _35
REMARK   13  A    between atoms: _35  and  _36
REMARK   14  A    between atoms: _35  and  _38
REMARK   15  A    between atoms: _38  and  _39
REMARK   16  A    between atoms: _39  and  _40
REMARK   17  A    between atoms: _42  and  _44
REMARK   18  A    between atoms: _44  and  _45
REMARK   19  A    between atoms: _44  and  _47
REMARK   20  A    between atoms: _47  and  _48
REMARK   21  A    between atoms: _53  and  _55
REMARK   22  A    between atoms: _55  and  _56
REMARK   23  A    between atoms: _55  and  _58
REMARK   24  A    between atoms: _61  and  _63
REMARK   25  A    between atoms: _63  and  _64
REMARK   26  A    between atoms: _66  and  _68
REMARK   27  A    between atoms: _68  and  _69
REMARK   28  A    between atoms: _68  and  _71
REMARK   29  A    between atoms: _71  and  _72
REMARK   30  A    between atoms: _72  and  _73
REMARK   31  A    between atoms: _73  and  _74
REMARK   32  A    between atoms: _74  and  _75
REMARK   33  A    between atoms: _79  and  _81
REMARK   34  A    between atoms: _81  and  _82
REMARK   35  A    between atoms: _81  and  _84
REMARK   36  A    between atoms: _84  and  _85
REMARK   37  A    between atoms: _85  and  _86
REMARK   38  A    between atoms: _89  and  _91
REMARK   39  A    between atoms: _91  and  _92
REMARK   40  A    between atoms: _91  and  _94
REMARK   41  A    between atoms: _94  and  _95
REMARK   42  A    between atoms: _98  and  _100
REMARK   43  A    between atoms: _100  and  _101
REMARK   44  A    between atoms: _103  and  _105
REMARK   45  A    between atoms: _105  and  _106
REMARK   46  A    between atoms: _109  and  _111
REMARK   47  A    between atoms: _111  and  _112
REMARK   48  A    between atoms: _111  and  _114
REMARK   49  A    between atoms: _114  and  _115
REMARK   50  A    between atoms: _120  and  _121
REMARK   51  A    between atoms: _123  and  _125
REMARK   52  A    between atoms: _125  and  _126
REMARK   53  A    between atoms: _125  and  _128
REMARK   54  A    between atoms: _130  and  _132
REMARK   55  A    between atoms: _132  and  _133
REMARK   56  A    between atoms: _135  and  _137
REMARK   57  A    between atoms: _137  and  _138
REMARK   58  A    between atoms: _137  and  _140
REMARK   59  A    between atoms: _140  and  _141
REMARK   60  A    between atoms: _144  and  _146
REMARK   61  A    between atoms: _146  and  _147
REMARK   62  A    between atoms: _146  and  _149
REMARK   63  A    between atoms: _150  and  _151
REMARK   64  A    between atoms: _153  and  _155
REMARK   65  A    between atoms: _155  and  _156
REMARK   66  A    between atoms: _155  and  _158
REMARK   67  A    between atoms: _158  and  _159
REMARK   68  A    between atoms: _159  and  _160
REMARK   69  A    between atoms: _163  and  _165
REMARK   70  A    between atoms: _165  and  _166
REMARK   71  A    between atoms: _165  and  _168
REMARK   72  A    between atoms: _168  and  _169
REMARK   73  A    between atoms: _172  and  _174
REMARK   74  A    between atoms: _174  and  _175
REMARK   75  A    between atoms: _174  and  _177
REMARK   76  A    between atoms: _177  and  _178
REMARK   77  A    between atoms: _184  and  _185
REMARK   78  A    between atoms: _190  and  _192
REMARK   79  A    between atoms: _192  and  _193
REMARK   80  A    between atoms: _192  and  _195
REMARK   81  A    between atoms: _195  and  _196
REMARK   82  A    between atoms: _199  and  _201
REMARK   83  A    between atoms: _201  and  _202
REMARK   84  A    between atoms: _201  and  _204
REMARK   85  A    between atoms: _206  and  _208
REMARK   86  A    between atoms: _208  and  _209
REMARK   87  A    between atoms: _212  and  _214
REMARK   88  A    between atoms: _214  and  _215
REMARK   89  A    between atoms: _214  and  _217
REMARK   90  A    between atoms: _217  and  _218
REMARK   91  A    between atoms: _221  and  _223
REMARK   92  A    between atoms: _223  and  _224
REMARK   93  A    between atoms: _223  and  _226
REMARK   94  A    between atoms: _226  and  _227
REMARK   95  A    between atoms: _230  and  _232
REMARK   96  A    between atoms: _232  and  _233
REMARK   97  A    between atoms: _232  and  _235
REMARK   98  A    between atoms: _235  and  _236
REMARK   99  A    between atoms: _241  and  _243
REMARK  100  A    between atoms: _243  and  _244
REMARK  101  A    between atoms: _246  and  _248
REMARK  102  A    between atoms: _248  and  _249
REMARK  103  A    between atoms: _252  and  _254
REMARK  104  A    between atoms: _254  and  _255
REMARK  105  A    between atoms: _254  and  _257
REMARK  106  A    between atoms: _257  and  _258
REMARK  107  A    between atoms: _260  and  _262
REMARK  108  A    between atoms: _262  and  _263
REMARK  109  A    between atoms: _262  and  _265
REMARK  110  A    between atoms: _265  and  _266
REMARK  111  A    between atoms: _266  and  _267
REMARK  112  A    between atoms: _272  and  _274
REMARK  113  A    between atoms: _274  and  _275
REMARK  114  A    between atoms: _274  and  _277
REMARK  115  A    between atoms: _277  and  _278
REMARK  116  A    between atoms: _281  and  _283
REMARK  117  A    between atoms: _283  and  _284
REMARK  118  A    between atoms: _283  and  _286
REMARK  119  A    between atoms: _286  and  _287
REMARK  120  A    between atoms: _290  and  _292
REMARK  121  A    between atoms: _292  and  _293
REMARK  122  A    between atoms: _292  and  _295
REMARK  123  A    between atoms: _295  and  _296
REMARK  124  A    between atoms: _299  and  _301
REMARK  125  A    between atoms: _301  and  _302
REMARK  126  A    between atoms: _301  and  _304
REMARK  127  A    between atoms: _304  and  _305
REMARK  128  A    between atoms: _311  and  _313
REMARK  129  A    between atoms: _313  and  _314
REMARK  130  A    between atoms: _313  and  _316
REMARK  131  A    between atoms: _316  and  _317
REMARK  132  A    between atoms: _320  and  _322
REMARK  133  A    between atoms: _322  and  _323
REMARK  134  A    between atoms: _322  and  _325
REMARK  135  A    between atoms: _325  and  _326
REMARK  136  A    between atoms: _326  and  _327
REMARK  137  A    between atoms: _327  and  MG_517
REMARK  138  A    between atoms: _329  and  _331
REMARK  139  A    between atoms: _331  and  _332
REMARK  140  A    between atoms: _331  and  _334
REMARK  141  A    between atoms: _334  and  _335
REMARK  142  A    between atoms: _340  and  _342
REMARK  143  A    between atoms: _342  and  _343
REMARK  144  A    between atoms: _342  and  _345
REMARK  145  A    between atoms: _345  and  _346
REMARK  146  A    between atoms: _356  and  _358
REMARK  147  A    between atoms: _358  and  _359
REMARK  148  A    between atoms: _358  and  _361
REMARK  149  A    between atoms: _361  and  _362
REMARK  150  A    between atoms: _362  and  _363
REMARK  151  A    between atoms: _363  and  _364
REMARK  152  A    between atoms: _364  and  _365
REMARK  153  A    between atoms: _369  and  _371
REMARK  154  A    between atoms: _371  and  _372
REMARK  155  A    between atoms: _371  and  _374
REMARK  156  A    between atoms: _374  and  _375
REMARK  157  A    between atoms: _378  and  _380
REMARK  158  A    between atoms: _380  and  _381
REMARK  159  A    between atoms: _380  and  _383
REMARK  160  A    between atoms: _383  and  _384
REMARK  161  A    between atoms: _384  and  _385
REMARK  162  A    between atoms: _385  and  _386
REMARK  163  A    between atoms: _395  and  _397
REMARK  164  A    between atoms: _397  and  _398
REMARK  165  A    between atoms: _397  and  _400
REMARK  166  A    between atoms: _400  and  _401
REMARK  167  A    between atoms: _406  and  _407
REMARK  168  A    between atoms: _409  and  _411
REMARK  169  A    between atoms: _411  and  _412
REMARK  170  A    between atoms: _411  and  _414
REMARK  171  A    between atoms: _414  and  _415
REMARK  172  A    between atoms: _418  and  _420
REMARK  173  A    between atoms: _420  and  _421
REMARK  174  A    between atoms: _420  and  _423
REMARK  175  A    between atoms: _423  and  _424
REMARK  176  A    between atoms: _427  and  _429
REMARK  177  A    between atoms: _429  and  _430
REMARK  178  A    between atoms: _429  and  _432
REMARK  179  A    between atoms: _432  and  _433
REMARK  180  A    between atoms: _438  and  _440
REMARK  181  A    between atoms: _440  and  _441
REMARK  182  A    between atoms: _440  and  _443
REMARK  183  A    between atoms: _446  and  _448
REMARK  184  A    between atoms: _448  and  _449
REMARK  185  A    between atoms: _448  and  _451
REMARK  186  A    between atoms: _455  and  _456
REMARK  187  A    between atoms: _461  and  _463
REMARK  188  A    between atoms: _463  and  _464
REMARK  189  A    between atoms: _466  and  _468
REMARK  190  A    between atoms: _468  and  _469
REMARK  191  A    between atoms: _468  and  _471
REMARK  192  A    between atoms: _471  and  _472
REMARK  193  A    between atoms: _475  and  _477
REMARK  194  A    between atoms: _477  and  _478
REMARK  195  A    between atoms: _477  and  _480
REMARK  196  A    between atoms: _480  and  _481
REMARK  197  A    between atoms: _484  and  _486
REMARK  198  A    between atoms: _486  and  _487
REMARK  199  A    between atoms: _486  and  _489
REMARK  200  A    between atoms: _489  and  _490
REMARK  201  A    between atoms: _490  and  _491
REMARK  202  A    between atoms: _494  and  _496
REMARK  203  A    between atoms: _496  and  _497
REMARK  204  A    between atoms: _496  and  _499
REMARK  205  A    between atoms: _499  and  _500
REMARK  206  A    between atoms: _505  and  _506
REMARK  207  A    between atoms: _508  and  _510
REMARK  208  A    between atoms: _510  and  _511
REMARK  209  A    between atoms: _510  and  _513
REMARK  210  A    between atoms: _513  and  _514
REMARK  211  A    between atoms: _514  and  _515
REMARK                            x       y       z     vdW  Elec       q    Type
REMARK                         _______ _______ _______ _____ _____    ______ ____
ROOT
ATOM      1  O   HOH     1      34.299   9.709 -18.005  0.00  0.00    +0.000 OA
ENDROOT
TORSDOF 0
REMARK  Name = ../refined-set-2016/3ozt/3ozt_pocket.pdb
REMARK  211 active torsions:
REMARK  status: ('A' for Active; 'I' for Inactive)
REMARK    1  A    between atoms: _1  and  _3
REMARK    2  A    between atoms: _3  and  _4
REMARK    3  A    between atoms: _3  and  _6
REMARK    4  A    between atoms: _6  and  _7
REMARK    5  A    between atoms: _7  and  _8
REMARK    6  A    between atoms: _11  and  _13
REMARK    7  A    between atoms: _13  and  _14
REMARK    8  A    between atoms: _13  and  _16
REMARK    9  A    between atoms: _16  and  _17
REMARK   10  A    between atoms: _27  and  _29
REMARK   11  A    between atoms: _29  and  _30
REMARK   12  A    between atoms: _33  and  _35
REMARK   13  A    between atoms: _35  and  _36
REMARK   14  A    between atoms: _35  and  _38
REMARK   15  A    between atoms: _38  and  _39
REMARK   16  A    between atoms: _39  and  _40
REMARK   17  A    between atoms: _42  and  _44
REMARK   18  A    between atoms: _44  and  _45
REMARK   19  A    between atoms: _44  and  _47
REMARK   20  A    between atoms: _47  and  _48
REMARK   21  A    between atoms: _53  and  _55
REMARK   22  A    between atoms: _55  and  _56
REMARK   23  A    between atoms: _55  and  _58
REMARK   24  A    between atoms: _61  and  _63
REMARK   25  A    between atoms: _63  and  _64
REMARK   26  A    between atoms: _66  and  _68
REMARK   27  A    between atoms: _68  and  _69
REMARK   28  A    between atoms: _68  and  _71
REMARK   29  A    between atoms: _71  and  _72
REMARK   30  A    between atoms: _72  and  _73
REMARK   31  A    between atoms: _73  and  _74
REMARK   32  A    between atoms: _74  and  _75
REMARK   33  A    between atoms: _79  and  _81
REMARK   34  A    between atoms: _81  and  _82
REMARK   35  A    between atoms: _81  and  _84
REMARK   36  A    between atoms: _84  and  _85
REMARK   37  A    between atoms: _85  and  _86
REMARK   38  A    between atoms: _89  and  _91
REMARK   39  A    between atoms: _91  and  _92
REMARK   40  A    between atoms: _91  and  _94
REMARK   41  A    between atoms: _94  and  _95
REMARK   42  A    between atoms: _98  and  _100
REMARK   43  A    between atoms: _100  and  _101
REMARK   44  A    between atoms: _103  and  _105
REMARK   45  A    between atoms: _105  and  _106
REMARK   46  A    between atoms: _109  and  _111
REMARK   47  A    between atoms: _111  and  _112
REMARK   48  A    between atoms: _111  and  _114
REMARK   49  A    between atoms: _114  and  _115
REMARK   50  A    between atoms: _120  and  _121
REMARK   51  A    between atoms: _123  and  _125
REMARK   52  A    between atoms: _125  and  _126
REMARK   53  A    between atoms: _125  and  _128
REMARK   54  A    between atoms: _130  and  _132
REMARK   55  A    between atoms: _132  and  _133
REMARK   56  A    between atoms: _135  and  _137
REMARK   57  A    between atoms: _137  and  _138
REMARK   58  A    between atoms: _137  and  _140
REMARK   59  A    between atoms: _140  and  _141
REMARK   60  A    between atoms: _144  and  _146
REMARK   61  A    between atoms: _146  and  _147
REMARK   62  A    between atoms: _146  and  _149
REMARK   63  A    between atoms: _150  and  _151
REMARK   64  A    between atoms: _153  and  _155
REMARK   65  A    between atoms: _155  and  _156
REMARK   66  A    between atoms: _155  and  _158
REMARK   67  A    between atoms: _158  and  _159
REMARK   68  A    between atoms: _159  and  _160
REMARK   69  A    between atoms: _163  and  _165
REMARK   70  A    between atoms: _165  and  _166
REMARK   71  A    between atoms: _165  and  _168
REMARK   72  A    between atoms: _168  and  _169
REMARK   73  A    between atoms: _172  and  _174
REMARK   74  A    between atoms: _174  and  _175
REMARK   75  A    between atoms: _174  and  _177
REMARK   76  A    between atoms: _177  and  _178
REMARK   77  A    between atoms: _184  and  _185
REMARK   78  A    between atoms: _190  and  _192
REMARK   79  A    between atoms: _192  and  _193
REMARK   80  A    between atoms: _192  and  _195
REMARK   81  A    between atoms: _195  and  _196
REMARK   82  A    between atoms: _199  and  _201
REMARK   83  A    between atoms: _201  and  _202
REMARK   84  A    between atoms: _201  and  _204
REMARK   85  A    between atoms: _206  and  _208
REMARK   86  A    between atoms: _208  and  _209
REMARK   87  A    between atoms: _212  and  _214
REMARK   88  A    between atoms: _214  and  _215
REMARK   89  A    between atoms: _214  and  _217
REMARK   90  A    between atoms: _217  and  _218
REMARK   91  A    between atoms: _221  and  _223
REMARK   92  A    between atoms: _223  and  _224
REMARK   93  A    between atoms: _223  and  _226
REMARK   94  A    between atoms: _226  and  _227
REMARK   95  A    between atoms: _230  and  _232
REMARK   96  A    between atoms: _232  and  _233
REMARK   97  A    between atoms: _232  and  _235
REMARK   98  A    between atoms: _235  and  _236
REMARK   99  A    between atoms: _241  and  _243
REMARK  100  A    between atoms: _243  and  _244
REMARK  101  A    between atoms: _246  and  _248
REMARK  102  A    between atoms: _248  and  _249
REMARK  103  A    between atoms: _252  and  _254
REMARK  104  A    between atoms: _254  and  _255
REMARK  105  A    between atoms: _254  and  _257
REMARK  106  A    between atoms: _257  and  _258
REMARK  107  A    between atoms: _260  and  _262
REMARK  108  A    between atoms: _262  and  _263
REMARK  109  A    between atoms: _262  and  _265
REMARK  110  A    between atoms: _265  and  _266
REMARK  111  A    between atoms: _266  and  _267
REMARK  112  A    between atoms: _272  and  _274
REMARK  113  A    between atoms: _274  and  _275
REMARK  114  A    between atoms: _274  and  _277
REMARK  115  A    between atoms: _277  and  _278
REMARK  116  A    between atoms: _281  and  _283
REMARK  117  A    between atoms: _283  and  _284
REMARK  118  A    between atoms: _283  and  _286
REMARK  119  A    between atoms: _286  and  _287
REMARK  120  A    between atoms: _290  and  _292
REMARK  121  A    between atoms: _292  and  _293
REMARK  122  A    between atoms: _292  and  _295
REMARK  123  A    between atoms: _295  and  _296
REMARK  124  A    between atoms: _299  and  _301
REMARK  125  A    between atoms: _301  and  _302
REMARK  126  A    between atoms: _301  and  _304
REMARK  127  A    between atoms: _304  and  _305
REMARK  128  A    between atoms: _311  and  _313
REMARK  129  A    between atoms: _313  and  _314
REMARK  130  A    between atoms: _313  and  _316
REMARK  131  A    between atoms: _316  and  _317
REMARK  132  A    between atoms: _320  and  _322
REMARK  133  A    between atoms: _322  and  _323
REMARK  134  A    between atoms: _322  and  _325
REMARK  135  A    between atoms: _325  and  _326
REMARK  136  A    between atoms: _326  and  _327
REMARK  137  A    between atoms: _327  and  MG_517
REMARK  138  A    between atoms: _329  and  _331
REMARK  139  A    between atoms: _331  and  _332
REMARK  140  A    between atoms: _331  and  _334
REMARK  141  A    between atoms: _334  and  _335
REMARK  142  A    between atoms: _340  and  _342
REMARK  143  A    between atoms: _342  and  _343
REMARK  144  A    between atoms: _342  and  _345
REMARK  145  A    between atoms: _345  and  _346
REMARK  146  A    between atoms: _356  and  _358
REMARK  147  A    between atoms: _358  and  _359
REMARK  148  A    between atoms: _358  and  _361
REMARK  149  A    between atoms: _361  and  _362
REMARK  150  A    between atoms: _362  and  _363
REMARK  151  A    between atoms: _363  and  _364
REMARK  152  A    between atoms: _364  and  _365
REMARK  153  A    between atoms: _369  and  _371
REMARK  154  A    between atoms: _371  and  _372
REMARK  155  A    between atoms: _371  and  _374
REMARK  156  A    between atoms: _374  and  _375
REMARK  157  A    between atoms: _378  and  _380
REMARK  158  A    between atoms: _380  and  _381
REMARK  159  A    between atoms: _380  and  _383
REMARK  160  A    between atoms: _383  and  _384
REMARK  161  A    between atoms: _384  and  _385
REMARK  162  A    between atoms: _385  and  _386
REMARK  163  A    between atoms: _395  and  _397
REMARK  164  A    between atoms: _397  and  _398
REMARK  165  A    between atoms: _397  and  _400
REMARK  166  A    between atoms: _400  and  _401
REMARK  167  A    between atoms: _406  and  _407
REMARK  168  A    between atoms: _409  and  _411
REMARK  169  A    between atoms: _411  and  _412
REMARK  170  A    between atoms: _411  and  _414
REMARK  171  A    between atoms: _414  and  _415
REMARK  172  A    between atoms: _418  and  _420
REMARK  173  A    between atoms: _420  and  _421
REMARK  174  A    between atoms: _420  and  _423
REMARK  175  A    between atoms: _423  and  _424
REMARK  176  A    between atoms: _427  and  _429
REMARK  177  A    between atoms: _429  and  _430
REMARK  178  A    between atoms: _429  and  _432
REMARK  179  A    between atoms: _432  and  _433
REMARK  180  A    between atoms: _438  and  _440
REMARK  181  A    between atoms: _440  and  _441
REMARK  182  A    between atoms: _440  and  _443
REMARK  183  A    between atoms: _446  and  _448
REMARK  184  A    between atoms: _448  and  _449
REMARK  185  A    between atoms: _448  and  _451
REMARK  186  A    between atoms: _455  and  _456
REMARK  187  A    between atoms: _461  and  _463
REMARK  188  A    between atoms: _463  and  _464
REMARK  189  A    between atoms: _466  and  _468
REMARK  190  A    between atoms: _468  and  _469
REMARK  191  A    between atoms: _468  and  _471
REMARK  192  A    between atoms: _471  and  _472
REMARK  193  A    between atoms: _475  and  _477
REMARK  194  A    between atoms: _477  and  _478
REMARK  195  A    between atoms: _477  and  _480
REMARK  196  A    between atoms: _480  and  _481
REMARK  197  A    between atoms: _484  and  _486
REMARK  198  A    between atoms: _486  and  _487
REMARK  199  A    between atoms: _486  and  _489
REMARK  200  A    between atoms: _489  and  _490
REMARK  201  A    between atoms: _490  and  _491
REMARK  202  A    between atoms: _494  and  _496
REMARK  203  A    between atoms: _496  and  _497
REMARK  204  A    between atoms: _496  and  _499
REMARK  205  A    between atoms: _499  and  _500
REMARK  206  A    between atoms: _505  and  _506
REMARK  207  A    between atoms: _508  and  _510
REMARK  208  A    between atoms: _510  and  _511
REMARK  209  A    between atoms: _510  and  _513
REMARK  210  A    between atoms: _513  and  _514
REMARK  211  A    between atoms: _514  and  _515
REMARK                            x       y       z     vdW  Elec       q    Type
REMARK                         _______ _______ _______ _____ _____    ______ ____
ROOT
ATOM      1  O   HOH     1      30.635 -15.709  -5.533  0.00  0.00    +0.000 OA
ENDROOT
TORSDOF 0
REMARK  Name = ../refined-set-2016/3ozt/3ozt_pocket.pdb
REMARK  211 active torsions:
REMARK  status: ('A' for Active; 'I' for Inactive)
REMARK    1  A    between atoms: _1  and  _3
REMARK    2  A    between atoms: _3  and  _4
REMARK    3  A    between atoms: _3  and  _6
REMARK    4  A    between atoms: _6  and  _7
REMARK    5  A    between atoms: _7  and  _8
REMARK    6  A    between atoms: _11  and  _13
REMARK    7  A    between atoms: _13  and  _14
REMARK    8  A    between atoms: _13  and  _16
REMARK    9  A    between atoms: _16  and  _17
REMARK   10  A    between atoms: _27  and  _29
REMARK   11  A    between atoms: _29  and  _30
REMARK   12  A    between atoms: _33  and  _35
REMARK   13  A    between atoms: _35  and  _36
REMARK   14  A    between atoms: _35  and  _38
REMARK   15  A    between atoms: _38  and  _39
REMARK   16  A    between atoms: _39  and  _40
REMARK   17  A    between atoms: _42  and  _44
REMARK   18  A    between atoms: _44  and  _45
REMARK   19  A    between atoms: _44  and  _47
REMARK   20  A    between atoms: _47  and  _48
REMARK   21  A    between atoms: _53  and  _55
REMARK   22  A    between atoms: _55  and  _56
REMARK   23  A    between atoms: _55  and  _58
REMARK   24  A    between atoms: _61  and  _63
REMARK   25  A    between atoms: _63  and  _64
REMARK   26  A    between atoms: _66  and  _68
REMARK   27  A    between atoms: _68  and  _69
REMARK   28  A    between atoms: _68  and  _71
REMARK   29  A    between atoms: _71  and  _72
REMARK   30  A    between atoms: _72  and  _73
REMARK   31  A    between atoms: _73  and  _74
REMARK   32  A    between atoms: _74  and  _75
REMARK   33  A    between atoms: _79  and  _81
REMARK   34  A    between atoms: _81  and  _82
REMARK   35  A    between atoms: _81  and  _84
REMARK   36  A    between atoms: _84  and  _85
REMARK   37  A    between atoms: _85  and  _86
REMARK   38  A    between atoms: _89  and  _91
REMARK   39  A    between atoms: _91  and  _92
REMARK   40  A    between atoms: _91  and  _94
REMARK   41  A    between atoms: _94  and  _95
REMARK   42  A    between atoms: _98  and  _100
REMARK   43  A    between atoms: _100  and  _101
REMARK   44  A    between atoms: _103  and  _105
REMARK   45  A    between atoms: _105  and  _106
REMARK   46  A    between atoms: _109  and  _111
REMARK   47  A    between atoms: _111  and  _112
REMARK   48  A    between atoms: _111  and  _114
REMARK   49  A    between atoms: _114  and  _115
REMARK   50  A    between atoms: _120  and  _121
REMARK   51  A    between atoms: _123  and  _125
REMARK   52  A    between atoms: _125  and  _126
REMARK   53  A    between atoms: _125  and  _128
REMARK   54  A    between atoms: _130  and  _132
REMARK   55  A    between atoms: _132  and  _133
REMARK   56  A    between atoms: _135  and  _137
REMARK   57  A    between atoms: _137  and  _138
REMARK   58  A    between atoms: _137  and  _140
REMARK   59  A    between atoms: _140  and  _141
REMARK   60  A    between atoms: _144  and  _146
REMARK   61  A    between atoms: _146  and  _147
REMARK   62  A    between atoms: _146  and  _149
REMARK   63  A    between atoms: _150  and  _151
REMARK   64  A    between atoms: _153  and  _155
REMARK   65  A    between atoms: _155  and  _156
REMARK   66  A    between atoms: _155  and  _158
REMARK   67  A    between atoms: _158  and  _159
REMARK   68  A    between atoms: _159  and  _160
REMARK   69  A    between atoms: _163  and  _165
REMARK   70  A    between atoms: _165  and  _166
REMARK   71  A    between atoms: _165  and  _168
REMARK   72  A    between atoms: _168  and  _169
REMARK   73  A    between atoms: _172  and  _174
REMARK   74  A    between atoms: _174  and  _175
REMARK   75  A    between atoms: _174  and  _177
REMARK   76  A    between atoms: _177  and  _178
REMARK   77  A    between atoms: _184  and  _185
REMARK   78  A    between atoms: _190  and  _192
REMARK   79  A    between atoms: _192  and  _193
REMARK   80  A    between atoms: _192  and  _195
REMARK   81  A    between atoms: _195  and  _196
REMARK   82  A    between atoms: _199  and  _201
REMARK   83  A    between atoms: _201  and  _202
REMARK   84  A    between atoms: _201  and  _204
REMARK   85  A    between atoms: _206  and  _208
REMARK   86  A    between atoms: _208  and  _209
REMARK   87  A    between atoms: _212  and  _214
REMARK   88  A    between atoms: _214  and  _215
REMARK   89  A    between atoms: _214  and  _217
REMARK   90  A    between atoms: _217  and  _218
REMARK   91  A    between atoms: _221  and  _223
REMARK   92  A    between atoms: _223  and  _224
REMARK   93  A    between atoms: _223  and  _226
REMARK   94  A    between atoms: _226  and  _227
REMARK   95  A    between atoms: _230  and  _232
REMARK   96  A    between atoms: _232  and  _233
REMARK   97  A    between atoms: _232  and  _235
REMARK   98  A    between atoms: _235  and  _236
REMARK   99  A    between atoms: _241  and  _243
REMARK  100  A    between atoms: _243  and  _244
REMARK  101  A    between atoms: _246  and  _248
REMARK  102  A    between atoms: _248  and  _249
REMARK  103  A    between atoms: _252  and  _254
REMARK  104  A    between atoms: _254  and  _255
REMARK  105  A    between atoms: _254  and  _257
REMARK  106  A    between atoms: _257  and  _258
REMARK  107  A    between atoms: _260  and  _262
REMARK  108  A    between atoms: _262  and  _263
REMARK  109  A    between atoms: _262  and  _265
REMARK  110  A    between atoms: _265  and  _266
REMARK  111  A    between atoms: _266  and  _267
REMARK  112  A    between atoms: _272  and  _274
REMARK  113  A    between atoms: _274  and  _275
REMARK  114  A    between atoms: _274  and  _277
REMARK  115  A    between atoms: _277  and  _278
REMARK  116  A    between atoms: _281  and  _283
REMARK  117  A    between atoms: _283  and  _284
REMARK  118  A    between atoms: _283  and  _286
REMARK  119  A    between atoms: _286  and  _287
REMARK  120  A    between atoms: _290  and  _292
REMARK  121  A    between atoms: _292  and  _293
REMARK  122  A    between atoms: _292  and  _295
REMARK  123  A    between atoms: _295  and  _296
REMARK  124  A    between atoms: _299  and  _301
REMARK  125  A    between atoms: _301  and  _302
REMARK  126  A    between atoms: _301  and  _304
REMARK  127  A    between atoms: _304  and  _305
REMARK  128  A    between atoms: _311  and  _313
REMARK  129  A    between atoms: _313  and  _314
REMARK  130  A    between atoms: _313  and  _316
REMARK  131  A    between atoms: _316  and  _317
REMARK  132  A    between atoms: _320  and  _322
REMARK  133  A    between atoms: _322  and  _323
REMARK  134  A    between atoms: _322  and  _325
REMARK  135  A    between atoms: _325  and  _326
REMARK  136  A    between atoms: _326  and  _327
REMARK  137  A    between atoms: _327  and  MG_517
REMARK  138  A    between atoms: _329  and  _331
REMARK  139  A    between atoms: _331  and  _332
REMARK  140  A    between atoms: _331  and  _334
REMARK  141  A    between atoms: _334  and  _335
REMARK  142  A    between atoms: _340  and  _342
REMARK  143  A    between atoms: _342  and  _343
REMARK  144  A    between atoms: _342  and  _345
REMARK  145  A    between atoms: _345  and  _346
REMARK  146  A    between atoms: _356  and  _358
REMARK  147  A    between atoms: _358  and  _359
REMARK  148  A    between atoms: _358  and  _361
REMARK  149  A    between atoms: _361  and  _362
REMARK  150  A    between atoms: _362  and  _363
REMARK  151  A    between atoms: _363  and  _364
REMARK  152  A    between atoms: _364  and  _365
REMARK  153  A    between atoms: _369  and  _371
REMARK  154  A    between atoms: _371  and  _372
REMARK  155  A    between atoms: _371  and  _374
REMARK  156  A    between atoms: _374  and  _375
REMARK  157  A    between atoms: _378  and  _380
REMARK  158  A    between atoms: _380  and  _381
REMARK  159  A    between atoms: _380  and  _383
REMARK  160  A    between atoms: _383  and  _384
REMARK  161  A    between atoms: _384  and  _385
REMARK  162  A    between atoms: _385  and  _386
REMARK  163  A    between atoms: _395  and  _397
REMARK  164  A    between atoms: _397  and  _398
REMARK  165  A    between atoms: _397  and  _400
REMARK  166  A    between atoms: _400  and  _401
REMARK  167  A    between atoms: _406  and  _407
REMARK  168  A    between atoms: _409  and  _411
REMARK  169  A    between atoms: _411  and  _412
REMARK  170  A    between atoms: _411  and  _414
REMARK  171  A    between atoms: _414  and  _415
REMARK  172  A    between atoms: _418  and  _420
REMARK  173  A    between atoms: _420  and  _421
REMARK  174  A    between atoms: _420  and  _423
REMARK  175  A    between atoms: _423  and  _424
REMARK  176  A    between atoms: _427  and  _429
REMARK  177  A    between atoms: _429  and  _430
REMARK  178  A    between atoms: _429  and  _432
REMARK  179  A    between atoms: _432  and  _433
REMARK  180  A    between atoms: _438  and  _440
REMARK  181  A    between atoms: _440  and  _441
REMARK  182  A    between atoms: _440  and  _443
REMARK  183  A    between atoms: _446  and  _448
REMARK  184  A    between atoms: _448  and  _449
REMARK  185  A    between atoms: _448  and  _451
REMARK  186  A    between atoms: _455  and  _456
REMARK  187  A    between atoms: _461  and  _463
REMARK  188  A    between atoms: _463  and  _464
REMARK  189  A    between atoms: _466  and  _468
REMARK  190  A    between atoms: _468  and  _469
REMARK  191  A    between atoms: _468  and  _471
REMARK  192  A    between atoms: _471  and  _472
REMARK  193  A    between atoms: _475  and  _477
REMARK  194  A    between atoms: _477  and  _478
REMARK  195  A    between atoms: _477  and  _480
REMARK  196  A    between atoms: _480  and  _481
REMARK  197  A    between atoms: _484  and  _486
REMARK  198  A    between atoms: _486  and  _487
REMARK  199  A    between atoms: _486  and  _489
REMARK  200  A    between atoms: _489  and  _490
REMARK  201  A    between atoms: _490  and  _491
REMARK  202  A    between atoms: _494  and  _496
REMARK  203  A    between atoms: _496  and  _497
REMARK  204  A    between atoms: _496  and  _499
REMARK  205  A    between atoms: _499  and  _500
REMARK  206  A    between atoms: _505  and  _506
REMARK  207  A    between atoms: _508  and  _510
REMARK  208  A    between atoms: _510  and  _511
REMARK  209  A    between atoms: _510  and  _513
REMARK  210  A    between atoms: _513  and  _514
REMARK  211  A    between atoms: _514  and  _515
REMARK                            x       y       z     vdW  Elec       q    Type
REMARK                         _______ _______ _______ _____ _____    ______ ____
ROOT
ATOM      1  O   HOH     1      37.740  -0.797  -5.302  0.00  0.00    +0.000 OA
ENDROOT
TORSDOF 0
REMARK  Name = ../refined-set-2016/3ozt/3ozt_pocket.pdb
REMARK  211 active torsions:
REMARK  status: ('A' for Active; 'I' for Inactive)
REMARK    1  A    between atoms: _1  and  _3
REMARK    2  A    between atoms: _3  and  _4
REMARK    3  A    between atoms: _3  and  _6
REMARK    4  A    between atoms: _6  and  _7
REMARK    5  A    between atoms: _7  and  _8
REMARK    6  A    between atoms: _11  and  _13
REMARK    7  A    between atoms: _13  and  _14
REMARK    8  A    between atoms: _13  and  _16
REMARK    9  A    between atoms: _16  and  _17
REMARK   10  A    between atoms: _27  and  _29
REMARK   11  A    between atoms: _29  and  _30
REMARK   12  A    between atoms: _33  and  _35
REMARK   13  A    between atoms: _35  and  _36
REMARK   14  A    between atoms: _35  and  _38
REMARK   15  A    between atoms: _38  and  _39
REMARK   16  A    between atoms: _39  and  _40
REMARK   17  A    between atoms: _42  and  _44
REMARK   18  A    between atoms: _44  and  _45
REMARK   19  A    between atoms: _44  and  _47
REMARK   20  A    between atoms: _47  and  _48
REMARK   21  A    between atoms: _53  and  _55
REMARK   22  A    between atoms: _55  and  _56
REMARK   23  A    between atoms: _55  and  _58
REMARK   24  A    between atoms: _61  and  _63
REMARK   25  A    between atoms: _63  and  _64
REMARK   26  A    between atoms: _66  and  _68
REMARK   27  A    between atoms: _68  and  _69
REMARK   28  A    between atoms: _68  and  _71
REMARK   29  A    between atoms: _71  and  _72
REMARK   30  A    between atoms: _72  and  _73
REMARK   31  A    between atoms: _73  and  _74
REMARK   32  A    between atoms: _74  and  _75
REMARK   33  A    between atoms: _79  and  _81
REMARK   34  A    between atoms: _81  and  _82
REMARK   35  A    between atoms: _81  and  _84
REMARK   36  A    between atoms: _84  and  _85
REMARK   37  A    between atoms: _85  and  _86
REMARK   38  A    between atoms: _89  and  _91
REMARK   39  A    between atoms: _91  and  _92
REMARK   40  A    between atoms: _91  and  _94
REMARK   41  A    between atoms: _94  and  _95
REMARK   42  A    between atoms: _98  and  _100
REMARK   43  A    between atoms: _100  and  _101
REMARK   44  A    between atoms: _103  and  _105
REMARK   45  A    between atoms: _105  and  _106
REMARK   46  A    between atoms: _109  and  _111
REMARK   47  A    between atoms: _111  and  _112
REMARK   48  A    between atoms: _111  and  _114
REMARK   49  A    between atoms: _114  and  _115
REMARK   50  A    between atoms: _120  and  _121
REMARK   51  A    between atoms: _123  and  _125
REMARK   52  A    between atoms: _125  and  _126
REMARK   53  A    between atoms: _125  and  _128
REMARK   54  A    between atoms: _130  and  _132
REMARK   55  A    between atoms: _132  and  _133
REMARK   56  A    between atoms: _135  and  _137
REMARK   57  A    between atoms: _137  and  _138
REMARK   58  A    between atoms: _137  and  _140
REMARK   59  A    between atoms: _140  and  _141
REMARK   60  A    between atoms: _144  and  _146
REMARK   61  A    between atoms: _146  and  _147
REMARK   62  A    between atoms: _146  and  _149
REMARK   63  A    between atoms: _150  and  _151
REMARK   64  A    between atoms: _153  and  _155
REMARK   65  A    between atoms: _155  and  _156
REMARK   66  A    between atoms: _155  and  _158
REMARK   67  A    between atoms: _158  and  _159
REMARK   68  A    between atoms: _159  and  _160
REMARK   69  A    between atoms: _163  and  _165
REMARK   70  A    between atoms: _165  and  _166
REMARK   71  A    between atoms: _165  and  _168
REMARK   72  A    between atoms: _168  and  _169
REMARK   73  A    between atoms: _172  and  _174
REMARK   74  A    between atoms: _174  and  _175
REMARK   75  A    between atoms: _174  and  _177
REMARK   76  A    between atoms: _177  and  _178
REMARK   77  A    between atoms: _184  and  _185
REMARK   78  A    between atoms: _190  and  _192
REMARK   79  A    between atoms: _192  and  _193
REMARK   80  A    between atoms: _192  and  _195
REMARK   81  A    between atoms: _195  and  _196
REMARK   82  A    between atoms: _199  and  _201
REMARK   83  A    between atoms: _201  and  _202
REMARK   84  A    between atoms: _201  and  _204
REMARK   85  A    between atoms: _206  and  _208
REMARK   86  A    between atoms: _208  and  _209
REMARK   87  A    between atoms: _212  and  _214
REMARK   88  A    between atoms: _214  and  _215
REMARK   89  A    between atoms: _214  and  _217
REMARK   90  A    between atoms: _217  and  _218
REMARK   91  A    between atoms: _221  and  _223
REMARK   92  A    between atoms: _223  and  _224
REMARK   93  A    between atoms: _223  and  _226
REMARK   94  A    between atoms: _226  and  _227
REMARK   95  A    between atoms: _230  and  _232
REMARK   96  A    between atoms: _232  and  _233
REMARK   97  A    between atoms: _232  and  _235
REMARK   98  A    between atoms: _235  and  _236
REMARK   99  A    between atoms: _241  and  _243
REMARK  100  A    between atoms: _243  and  _244
REMARK  101  A    between atoms: _246  and  _248
REMARK  102  A    between atoms: _248  and  _249
REMARK  103  A    between atoms: _252  and  _254
REMARK  104  A    between atoms: _254  and  _255
REMARK  105  A    between atoms: _254  and  _257
REMARK  106  A    between atoms: _257  and  _258
REMARK  107  A    between atoms: _260  and  _262
REMARK  108  A    between atoms: _262  and  _263
REMARK  109  A    between atoms: _262  and  _265
REMARK  110  A    between atoms: _265  and  _266
REMARK  111  A    between atoms: _266  and  _267
REMARK  112  A    between atoms: _272  and  _274
REMARK  113  A    between atoms: _274  and  _275
REMARK  114  A    between atoms: _274  and  _277
REMARK  115  A    between atoms: _277  and  _278
REMARK  116  A    between atoms: _281  and  _283
REMARK  117  A    between atoms: _283  and  _284
REMARK  118  A    between atoms: _283  and  _286
REMARK  119  A    between atoms: _286  and  _287
REMARK  120  A    between atoms: _290  and  _292
REMARK  121  A    between atoms: _292  and  _293
REMARK  122  A    between atoms: _292  and  _295
REMARK  123  A    between atoms: _295  and  _296
REMARK  124  A    between atoms: _299  and  _301
REMARK  125  A    between atoms: _301  and  _302
REMARK  126  A    between atoms: _301  and  _304
REMARK  127  A    between atoms: _304  and  _305
REMARK  128  A    between atoms: _311  and  _313
REMARK  129  A    between atoms: _313  and  _314
REMARK  130  A    between atoms: _313  and  _316
REMARK  131  A    between atoms: _316  and  _317
REMARK  132  A    between atoms: _320  and  _322
REMARK  133  A    between atoms: _322  and  _323
REMARK  134  A    between atoms: _322  and  _325
REMARK  135  A    between atoms: _325  and  _326
REMARK  136  A    between atoms: _326  and  _327
REMARK  137  A    between atoms: _327  and  MG_517
REMARK  138  A    between atoms: _329  and  _331
REMARK  139  A    between atoms: _331  and  _332
REMARK  140  A    between atoms: _331  and  _334
REMARK  141  A    between atoms: _334  and  _335
REMARK  142  A    between atoms: _340  and  _342
REMARK  143  A    between atoms: _342  and  _343
REMARK  144  A    between atoms: _342  and  _345
REMARK  145  A    between atoms: _345  and  _346
REMARK  146  A    between atoms: _356  and  _358
REMARK  147  A    between atoms: _358  and  _359
REMARK  148  A    between atoms: _358  and  _361
REMARK  149  A    between atoms: _361  and  _362
REMARK  150  A    between atoms: _362  and  _363
REMARK  151  A    between atoms: _363  and  _364
REMARK  152  A    between atoms: _364  and  _365
REMARK  153  A    between atoms: _369  and  _371
REMARK  154  A    between atoms: _371  and  _372
REMARK  155  A    between atoms: _371  and  _374
REMARK  156  A    between atoms: _374  and  _375
REMARK  157  A    between atoms: _378  and  _380
REMARK  158  A    between atoms: _380  and  _381
REMARK  159  A    between atoms: _380  and  _383
REMARK  160  A    between atoms: _383  and  _384
REMARK  161  A    between atoms: _384  and  _385
REMARK  162  A    between atoms: _385  and  _386
REMARK  163  A    between atoms: _395  and  _397
REMARK  164  A    between atoms: _397  and  _398
REMARK  165  A    between atoms: _397  and  _400
REMARK  166  A    between atoms: _400  and  _401
REMARK  167  A    between atoms: _406  and  _407
REMARK  168  A    between atoms: _409  and  _411
REMARK  169  A    between atoms: _411  and  _412
REMARK  170  A    between atoms: _411  and  _414
REMARK  171  A    between atoms: _414  and  _415
REMARK  172  A    between atoms: _418  and  _420
REMARK  173  A    between atoms: _420  and  _421
REMARK  174  A    between atoms: _420  and  _423
REMARK  175  A    between atoms: _423  and  _424
REMARK  176  A    between atoms: _427  and  _429
REMARK  177  A    between atoms: _429  and  _430
REMARK  178  A    between atoms: _429  and  _432
REMARK  179  A    between atoms: _432  and  _433
REMARK  180  A    between atoms: _438  and  _440
REMARK  181  A    between atoms: _440  and  _441
REMARK  182  A    between atoms: _440  and  _443
REMARK  183  A    between atoms: _446  and  _448
REMARK  184  A    between atoms: _448  and  _449
REMARK  185  A    between atoms: _448  and  _451
REMARK  186  A    between atoms: _455  and  _456
REMARK  187  A    between atoms: _461  and  _463
REMARK  188  A    between atoms: _463  and  _464
REMARK  189  A    between atoms: _466  and  _468
REMARK  190  A    between atoms: _468  and  _469
REMARK  191  A    between atoms: _468  and  _471
REMARK  192  A    between atoms: _471  and  _472
REMARK  193  A    between atoms: _475  and  _477
REMARK  194  A    between atoms: _477  and  _478
REMARK  195  A    between atoms: _477  and  _480
REMARK  196  A    between atoms: _480  and  _481
REMARK  197  A    between atoms: _484  and  _486
REMARK  198  A    between atoms: _486  and  _487
REMARK  199  A    between atoms: _486  and  _489
REMARK  200  A    between atoms: _489  and  _490
REMARK  201  A    between atoms: _490  and  _491
REMARK  202  A    between atoms: _494  and  _496
REMARK  203  A    between atoms: _496  and  _497
REMARK  204  A    between atoms: _496  and  _499
REMARK  205  A    between atoms: _499  and  _500
REMARK  206  A    between atoms: _505  and  _506
REMARK  207  A    between atoms: _508  and  _510
REMARK  208  A    between atoms: _510  and  _511
REMARK  209  A    between atoms: _510  and  _513
REMARK  210  A    between atoms: _513  and  _514
REMARK  211  A    between atoms: _514  and  _515
REMARK                            x       y       z     vdW  Elec       q    Type
REMARK                         _______ _______ _______ _____ _____    ______ ____
ROOT
ATOM      1  O   HOH     1      33.212  -5.004 -11.874  0.00  0.00    +0.000 OA
ENDROOT
TORSDOF 0
REMARK  Name = ../refined-set-2016/3ozt/3ozt_pocket.pdb
REMARK  211 active torsions:
REMARK  status: ('A' for Active; 'I' for Inactive)
REMARK    1  A    between atoms: _1  and  _3
REMARK    2  A    between atoms: _3  and  _4
REMARK    3  A    between atoms: _3  and  _6
REMARK    4  A    between atoms: _6  and  _7
REMARK    5  A    between atoms: _7  and  _8
REMARK    6  A    between atoms: _11  and  _13
REMARK    7  A    between atoms: _13  and  _14
REMARK    8  A    between atoms: _13  and  _16
REMARK    9  A    between atoms: _16  and  _17
REMARK   10  A    between atoms: _27  and  _29
REMARK   11  A    between atoms: _29  and  _30
REMARK   12  A    between atoms: _33  and  _35
REMARK   13  A    between atoms: _35  and  _36
REMARK   14  A    between atoms: _35  and  _38
REMARK   15  A    between atoms: _38  and  _39
REMARK   16  A    between atoms: _39  and  _40
REMARK   17  A    between atoms: _42  and  _44
REMARK   18  A    between atoms: _44  and  _45
REMARK   19  A    between atoms: _44  and  _47
REMARK   20  A    between atoms: _47  and  _48
REMARK   21  A    between atoms: _53  and  _55
REMARK   22  A    between atoms: _55  and  _56
REMARK   23  A    between atoms: _55  and  _58
REMARK   24  A    between atoms: _61  and  _63
REMARK   25  A    between atoms: _63  and  _64
REMARK   26  A    between atoms: _66  and  _68
REMARK   27  A    between atoms: _68  and  _69
REMARK   28  A    between atoms: _68  and  _71
REMARK   29  A    between atoms: _71  and  _72
REMARK   30  A    between atoms: _72  and  _73
REMARK   31  A    between atoms: _73  and  _74
REMARK   32  A    between atoms: _74  and  _75
REMARK   33  A    between atoms: _79  and  _81
REMARK   34  A    between atoms: _81  and  _82
REMARK   35  A    between atoms: _81  and  _84
REMARK   36  A    between atoms: _84  and  _85
REMARK   37  A    between atoms: _85  and  _86
REMARK   38  A    between atoms: _89  and  _91
REMARK   39  A    between atoms: _91  and  _92
REMARK   40  A    between atoms: _91  and  _94
REMARK   41  A    between atoms: _94  and  _95
REMARK   42  A    between atoms: _98  and  _100
REMARK   43  A    between atoms: _100  and  _101
REMARK   44  A    between atoms: _103  and  _105
REMARK   45  A    between atoms: _105  and  _106
REMARK   46  A    between atoms: _109  and  _111
REMARK   47  A    between atoms: _111  and  _112
REMARK   48  A    between atoms: _111  and  _114
REMARK   49  A    between atoms: _114  and  _115
REMARK   50  A    between atoms: _120  and  _121
REMARK   51  A    between atoms: _123  and  _125
REMARK   52  A    between atoms: _125  and  _126
REMARK   53  A    between atoms: _125  and  _128
REMARK   54  A    between atoms: _130  and  _132
REMARK   55  A    between atoms: _132  and  _133
REMARK   56  A    between atoms: _135  and  _137
REMARK   57  A    between atoms: _137  and  _138
REMARK   58  A    between atoms: _137  and  _140
REMARK   59  A    between atoms: _140  and  _141
REMARK   60  A    between atoms: _144  and  _146
REMARK   61  A    between atoms: _146  and  _147
REMARK   62  A    between atoms: _146  and  _149
REMARK   63  A    between atoms: _150  and  _151
REMARK   64  A    between atoms: _153  and  _155
REMARK   65  A    between atoms: _155  and  _156
REMARK   66  A    between atoms: _155  and  _158
REMARK   67  A    between atoms: _158  and  _159
REMARK   68  A    between atoms: _159  and  _160
REMARK   69  A    between atoms: _163  and  _165
REMARK   70  A    between atoms: _165  and  _166
REMARK   71  A    between atoms: _165  and  _168
REMARK   72  A    between atoms: _168  and  _169
REMARK   73  A    between atoms: _172  and  _174
REMARK   74  A    between atoms: _174  and  _175
REMARK   75  A    between atoms: _174  and  _177
REMARK   76  A    between atoms: _177  and  _178
REMARK   77  A    between atoms: _184  and  _185
REMARK   78  A    between atoms: _190  and  _192
REMARK   79  A    between atoms: _192  and  _193
REMARK   80  A    between atoms: _192  and  _195
REMARK   81  A    between atoms: _195  and  _196
REMARK   82  A    between atoms: _199  and  _201
REMARK   83  A    between atoms: _201  and  _202
REMARK   84  A    between atoms: _201  and  _204
REMARK   85  A    between atoms: _206  and  _208
REMARK   86  A    between atoms: _208  and  _209
REMARK   87  A    between atoms: _212  and  _214
REMARK   88  A    between atoms: _214  and  _215
REMARK   89  A    between atoms: _214  and  _217
REMARK   90  A    between atoms: _217  and  _218
REMARK   91  A    between atoms: _221  and  _223
REMARK   92  A    between atoms: _223  and  _224
REMARK   93  A    between atoms: _223  and  _226
REMARK   94  A    between atoms: _226  and  _227
REMARK   95  A    between atoms: _230  and  _232
REMARK   96  A    between atoms: _232  and  _233
REMARK   97  A    between atoms: _232  and  _235
REMARK   98  A    between atoms: _235  and  _236
REMARK   99  A    between atoms: _241  and  _243
REMARK  100  A    between atoms: _243  and  _244
REMARK  101  A    between atoms: _246  and  _248
REMARK  102  A    between atoms: _248  and  _249
REMARK  103  A    between atoms: _252  and  _254
REMARK  104  A    between atoms: _254  and  _255
REMARK  105  A    between atoms: _254  and  _257
REMARK  106  A    between atoms: _257  and  _258
REMARK  107  A    between atoms: _260  and  _262
REMARK  108  A    between atoms: _262  and  _263
REMARK  109  A    between atoms: _262  and  _265
REMARK  110  A    between atoms: _265  and  _266
REMARK  111  A    between atoms: _266  and  _267
REMARK  112  A    between atoms: _272  and  _274
REMARK  113  A    between atoms: _274  and  _275
REMARK  114  A    between atoms: _274  and  _277
REMARK  115  A    between atoms: _277  and  _278
REMARK  116  A    between atoms: _281  and  _283
REMARK  117  A    between atoms: _283  and  _284
REMARK  118  A    between atoms: _283  and  _286
REMARK  119  A    between atoms: _286  and  _287
REMARK  120  A    between atoms: _290  and  _292
REMARK  121  A    between atoms: _292  and  _293
REMARK  122  A    between atoms: _292  and  _295
REMARK  123  A    between atoms: _295  and  _296
REMARK  124  A    between atoms: _299  and  _301
REMARK  125  A    between atoms: _301  and  _302
REMARK  126  A    between atoms: _301  and  _304
REMARK  127  A    between atoms: _304  and  _305
REMARK  128  A    between atoms: _311  and  _313
REMARK  129  A    between atoms: _313  and  _314
REMARK  130  A    between atoms: _313  and  _316
REMARK  131  A    between atoms: _316  and  _317
REMARK  132  A    between atoms: _320  and  _322
REMARK  133  A    between atoms: _322  and  _323
REMARK  134  A    between atoms: _322  and  _325
REMARK  135  A    between atoms: _325  and  _326
REMARK  136  A    between atoms: _326  and  _327
REMARK  137  A    between atoms: _327  and  MG_517
REMARK  138  A    between atoms: _329  and  _331
REMARK  139  A    between atoms: _331  and  _332
REMARK  140  A    between atoms: _331  and  _334
REMARK  141  A    between atoms: _334  and  _335
REMARK  142  A    between atoms: _340  and  _342
REMARK  143  A    between atoms: _342  and  _343
REMARK  144  A    between atoms: _342  and  _345
REMARK  145  A    between atoms: _345  and  _346
REMARK  146  A    between atoms: _356  and  _358
REMARK  147  A    between atoms: _358  and  _359
REMARK  148  A    between atoms: _358  and  _361
REMARK  149  A    between atoms: _361  and  _362
REMARK  150  A    between atoms: _362  and  _363
REMARK  151  A    between atoms: _363  and  _364
REMARK  152  A    between atoms: _364  and  _365
REMARK  153  A    between atoms: _369  and  _371
REMARK  154  A    between atoms: _371  and  _372
REMARK  155  A    between atoms: _371  and  _374
REMARK  156  A    between atoms: _374  and  _375
REMARK  157  A    between atoms: _378  and  _380
REMARK  158  A    between atoms: _380  and  _381
REMARK  159  A    between atoms: _380  and  _383
REMARK  160  A    between atoms: _383  and  _384
REMARK  161  A    between atoms: _384  and  _385
REMARK  162  A    between atoms: _385  and  _386
REMARK  163  A    between atoms: _395  and  _397
REMARK  164  A    between atoms: _397  and  _398
REMARK  165  A    between atoms: _397  and  _400
REMARK  166  A    between atoms: _400  and  _401
REMARK  167  A    between atoms: _406  and  _407
REMARK  168  A    between atoms: _409  and  _411
REMARK  169  A    between atoms: _411  and  _412
REMARK  170  A    between atoms: _411  and  _414
REMARK  171  A    between atoms: _414  and  _415
REMARK  172  A    between atoms: _418  and  _420
REMARK  173  A    between atoms: _420  and  _421
REMARK  174  A    between atoms: _420  and  _423
REMARK  175  A    between atoms: _423  and  _424
REMARK  176  A    between atoms: _427  and  _429
REMARK  177  A    between atoms: _429  and  _430
REMARK  178  A    between atoms: _429  and  _432
REMARK  179  A    between atoms: _432  and  _433
REMARK  180  A    between atoms: _438  and  _440
REMARK  181  A    between atoms: _440  and  _441
REMARK  182  A    between atoms: _440  and  _443
REMARK  183  A    between atoms: _446  and  _448
REMARK  184  A    between atoms: _448  and  _449
REMARK  185  A    between atoms: _448  and  _451
REMARK  186  A    between atoms: _455  and  _456
REMARK  187  A    between atoms: _461  and  _463
REMARK  188  A    between atoms: _463  and  _464
REMARK  189  A    between atoms: _466  and  _468
REMARK  190  A    between atoms: _468  and  _469
REMARK  191  A    between atoms: _468  and  _471
REMARK  192  A    between atoms: _471  and  _472
REMARK  193  A    between atoms: _475  and  _477
REMARK  194  A    between atoms: _477  and  _478
REMARK  195  A    between atoms: _477  and  _480
REMARK  196  A    between atoms: _480  and  _481
REMARK  197  A    between atoms: _484  and  _486
REMARK  198  A    between atoms: _486  and  _487
REMARK  199  A    between atoms: _486  and  _489
REMARK  200  A    between atoms: _489  and  _490
REMARK  201  A    between atoms: _490  and  _491
REMARK  202  A    between atoms: _494  and  _496
REMARK  203  A    between atoms: _496  and  _497
REMARK  204  A    between atoms: _496  and  _499
REMARK  205  A    between atoms: _499  and  _500
REMARK  206  A    between atoms: _505  and  _506
REMARK  207  A    between atoms: _508  and  _510
REMARK  208  A    between atoms: _510  and  _511
REMARK  209  A    between atoms: _510  and  _513
REMARK  210  A    between atoms: _513  and  _514
REMARK  211  A    between atoms: _514  and  _515
REMARK                            x       y       z     vdW  Elec       q    Type
REMARK                         _______ _______ _______ _____ _____    ______ ____
ROOT
ATOM      1  O   HOH     1      30.536  -6.536 -12.423  0.00  0.00    +0.000 OA
ENDROOT
TORSDOF 0
REMARK  Name = ../refined-set-2016/3ozt/3ozt_pocket.pdb
REMARK  211 active torsions:
REMARK  status: ('A' for Active; 'I' for Inactive)
REMARK    1  A    between atoms: _1  and  _3
REMARK    2  A    between atoms: _3  and  _4
REMARK    3  A    between atoms: _3  and  _6
REMARK    4  A    between atoms: _6  and  _7
REMARK    5  A    between atoms: _7  and  _8
REMARK    6  A    between atoms: _11  and  _13
REMARK    7  A    between atoms: _13  and  _14
REMARK    8  A    between atoms: _13  and  _16
REMARK    9  A    between atoms: _16  and  _17
REMARK   10  A    between atoms: _27  and  _29
REMARK   11  A    between atoms: _29  and  _30
REMARK   12  A    between atoms: _33  and  _35
REMARK   13  A    between atoms: _35  and  _36
REMARK   14  A    between atoms: _35  and  _38
REMARK   15  A    between atoms: _38  and  _39
REMARK   16  A    between atoms: _39  and  _40
REMARK   17  A    between atoms: _42  and  _44
REMARK   18  A    between atoms: _44  and  _45
REMARK   19  A    between atoms: _44  and  _47
REMARK   20  A    between atoms: _47  and  _48
REMARK   21  A    between atoms: _53  and  _55
REMARK   22  A    between atoms: _55  and  _56
REMARK   23  A    between atoms: _55  and  _58
REMARK   24  A    between atoms: _61  and  _63
REMARK   25  A    between atoms: _63  and  _64
REMARK   26  A    between atoms: _66  and  _68
REMARK   27  A    between atoms: _68  and  _69
REMARK   28  A    between atoms: _68  and  _71
REMARK   29  A    between atoms: _71  and  _72
REMARK   30  A    between atoms: _72  and  _73
REMARK   31  A    between atoms: _73  and  _74
REMARK   32  A    between atoms: _74  and  _75
REMARK   33  A    between atoms: _79  and  _81
REMARK   34  A    between atoms: _81  and  _82
REMARK   35  A    between atoms: _81  and  _84
REMARK   36  A    between atoms: _84  and  _85
REMARK   37  A    between atoms: _85  and  _86
REMARK   38  A    between atoms: _89  and  _91
REMARK   39  A    between atoms: _91  and  _92
REMARK   40  A    between atoms: _91  and  _94
REMARK   41  A    between atoms: _94  and  _95
REMARK   42  A    between atoms: _98  and  _100
REMARK   43  A    between atoms: _100  and  _101
REMARK   44  A    between atoms: _103  and  _105
REMARK   45  A    between atoms: _105  and  _106
REMARK   46  A    between atoms: _109  and  _111
REMARK   47  A    between atoms: _111  and  _112
REMARK   48  A    between atoms: _111  and  _114
REMARK   49  A    between atoms: _114  and  _115
REMARK   50  A    between atoms: _120  and  _121
REMARK   51  A    between atoms: _123  and  _125
REMARK   52  A    between atoms: _125  and  _126
REMARK   53  A    between atoms: _125  and  _128
REMARK   54  A    between atoms: _130  and  _132
REMARK   55  A    between atoms: _132  and  _133
REMARK   56  A    between atoms: _135  and  _137
REMARK   57  A    between atoms: _137  and  _138
REMARK   58  A    between atoms: _137  and  _140
REMARK   59  A    between atoms: _140  and  _141
REMARK   60  A    between atoms: _144  and  _146
REMARK   61  A    between atoms: _146  and  _147
REMARK   62  A    between atoms: _146  and  _149
REMARK   63  A    between atoms: _150  and  _151
REMARK   64  A    between atoms: _153  and  _155
REMARK   65  A    between atoms: _155  and  _156
REMARK   66  A    between atoms: _155  and  _158
REMARK   67  A    between atoms: _158  and  _159
REMARK   68  A    between atoms: _159  and  _160
REMARK   69  A    between atoms: _163  and  _165
REMARK   70  A    between atoms: _165  and  _166
REMARK   71  A    between atoms: _165  and  _168
REMARK   72  A    between atoms: _168  and  _169
REMARK   73  A    between atoms: _172  and  _174
REMARK   74  A    between atoms: _174  and  _175
REMARK   75  A    between atoms: _174  and  _177
REMARK   76  A    between atoms: _177  and  _178
REMARK   77  A    between atoms: _184  and  _185
REMARK   78  A    between atoms: _190  and  _192
REMARK   79  A    between atoms: _192  and  _193
REMARK   80  A    between atoms: _192  and  _195
REMARK   81  A    between atoms: _195  and  _196
REMARK   82  A    between atoms: _199  and  _201
REMARK   83  A    between atoms: _201  and  _202
REMARK   84  A    between atoms: _201  and  _204
REMARK   85  A    between atoms: _206  and  _208
REMARK   86  A    between atoms: _208  and  _209
REMARK   87  A    between atoms: _212  and  _214
REMARK   88  A    between atoms: _214  and  _215
REMARK   89  A    between atoms: _214  and  _217
REMARK   90  A    between atoms: _217  and  _218
REMARK   91  A    between atoms: _221  and  _223
REMARK   92  A    between atoms: _223  and  _224
REMARK   93  A    between atoms: _223  and  _226
REMARK   94  A    between atoms: _226  and  _227
REMARK   95  A    between atoms: _230  and  _232
REMARK   96  A    between atoms: _232  and  _233
REMARK   97  A    between atoms: _232  and  _235
REMARK   98  A    between atoms: _235  and  _236
REMARK   99  A    between atoms: _241  and  _243
REMARK  100  A    between atoms: _243  and  _244
REMARK  101  A    between atoms: _246  and  _248
REMARK  102  A    between atoms: _248  and  _249
REMARK  103  A    between atoms: _252  and  _254
REMARK  104  A    between atoms: _254  and  _255
REMARK  105  A    between atoms: _254  and  _257
REMARK  106  A    between atoms: _257  and  _258
REMARK  107  A    between atoms: _260  and  _262
REMARK  108  A    between atoms: _262  and  _263
REMARK  109  A    between atoms: _262  and  _265
REMARK  110  A    between atoms: _265  and  _266
REMARK  111  A    between atoms: _266  and  _267
REMARK  112  A    between atoms: _272  and  _274
REMARK  113  A    between atoms: _274  and  _275
REMARK  114  A    between atoms: _274  and  _277
REMARK  115  A    between atoms: _277  and  _278
REMARK  116  A    between atoms: _281  and  _283
REMARK  117  A    between atoms: _283  and  _284
REMARK  118  A    between atoms: _283  and  _286
REMARK  119  A    between atoms: _286  and  _287
REMARK  120  A    between atoms: _290  and  _292
REMARK  121  A    between atoms: _292  and  _293
REMARK  122  A    between atoms: _292  and  _295
REMARK  123  A    between atoms: _295  and  _296
REMARK  124  A    between atoms: _299  and  _301
REMARK  125  A    between atoms: _301  and  _302
REMARK  126  A    between atoms: _301  and  _304
REMARK  127  A    between atoms: _304  and  _305
REMARK  128  A    between atoms: _311  and  _313
REMARK  129  A    between atoms: _313  and  _314
REMARK  130  A    between atoms: _313  and  _316
REMARK  131  A    between atoms: _316  and  _317
REMARK  132  A    between atoms: _320  and  _322
REMARK  133  A    between atoms: _322  and  _323
REMARK  134  A    between atoms: _322  and  _325
REMARK  135  A    between atoms: _325  and  _326
REMARK  136  A    between atoms: _326  and  _327
REMARK  137  A    between atoms: _327  and  MG_517
REMARK  138  A    between atoms: _329  and  _331
REMARK  139  A    between atoms: _331  and  _332
REMARK  140  A    between atoms: _331  and  _334
REMARK  141  A    between atoms: _334  and  _335
REMARK  142  A    between atoms: _340  and  _342
REMARK  143  A    between atoms: _342  and  _343
REMARK  144  A    between atoms: _342  and  _345
REMARK  145  A    between atoms: _345  and  _346
REMARK  146  A    between atoms: _356  and  _358
REMARK  147  A    between atoms: _358  and  _359
REMARK  148  A    between atoms: _358  and  _361
REMARK  149  A    between atoms: _361  and  _362
REMARK  150  A    between atoms: _362  and  _363
REMARK  151  A    between atoms: _363  and  _364
REMARK  152  A    between atoms: _364  and  _365
REMARK  153  A    between atoms: _369  and  _371
REMARK  154  A    between atoms: _371  and  _372
REMARK  155  A    between atoms: _371  and  _374
REMARK  156  A    between atoms: _374  and  _375
REMARK  157  A    between atoms: _378  and  _380
REMARK  158  A    between atoms: _380  and  _381
REMARK  159  A    between atoms: _380  and  _383
REMARK  160  A    between atoms: _383  and  _384
REMARK  161  A    between atoms: _384  and  _385
REMARK  162  A    between atoms: _385  and  _386
REMARK  163  A    between atoms: _395  and  _397
REMARK  164  A    between atoms: _397  and  _398
REMARK  165  A    between atoms: _397  and  _400
REMARK  166  A    between atoms: _400  and  _401
REMARK  167  A    between atoms: _406  and  _407
REMARK  168  A    between atoms: _409  and  _411
REMARK  169  A    between atoms: _411  and  _412
REMARK  170  A    between atoms: _411  and  _414
REMARK  171  A    between atoms: _414  and  _415
REMARK  172  A    between atoms: _418  and  _420
REMARK  173  A    between atoms: _420  and  _421
REMARK  174  A    between atoms: _420  and  _423
REMARK  175  A    between atoms: _423  and  _424
REMARK  176  A    between atoms: _427  and  _429
REMARK  177  A    between atoms: _429  and  _430
REMARK  178  A    between atoms: _429  and  _432
REMARK  179  A    between atoms: _432  and  _433
REMARK  180  A    between atoms: _438  and  _440
REMARK  181  A    between atoms: _440  and  _441
REMARK  182  A    between atoms: _440  and  _443
REMARK  183  A    between atoms: _446  and  _448
REMARK  184  A    between atoms: _448  and  _449
REMARK  185  A    between atoms: _448  and  _451
REMARK  186  A    between atoms: _455  and  _456
REMARK  187  A    between atoms: _461  and  _463
REMARK  188  A    between atoms: _463  and  _464
REMARK  189  A    between atoms: _466  and  _468
REMARK  190  A    between atoms: _468  and  _469
REMARK  191  A    between atoms: _468  and  _471
REMARK  192  A    between atoms: _471  and  _472
REMARK  193  A    between atoms: _475  and  _477
REMARK  194  A    between atoms: _477  and  _478
REMARK  195  A    between atoms: _477  and  _480
REMARK  196  A    between atoms: _480  and  _481
REMARK  197  A    between atoms: _484  and  _486
REMARK  198  A    between atoms: _486  and  _487
REMARK  199  A    between atoms: _486  and  _489
REMARK  200  A    between atoms: _489  and  _490
REMARK  201  A    between atoms: _490  and  _491
REMARK  202  A    between atoms: _494  and  _496
REMARK  203  A    between atoms: _496  and  _497
REMARK  204  A    between atoms: _496  and  _499
REMARK  205  A    between atoms: _499  and  _500
REMARK  206  A    between atoms: _505  and  _506
REMARK  207  A    between atoms: _508  and  _510
REMARK  208  A    between atoms: _510  and  _511
REMARK  209  A    between atoms: _510  and  _513
REMARK  210  A    between atoms: _513  and  _514
REMARK  211  A    between atoms: _514  and  _515
REMARK                            x       y       z     vdW  Elec       q    Type
REMARK                         _______ _______ _______ _____ _____    ______ ____
ROOT
ATOM      1  O   HOH     1      33.385  -8.114 -12.085  0.00  0.00    +0.000 OA
ENDROOT
TORSDOF 0
REMARK  Name = ../refined-set-2016/3ozt/3ozt_pocket.pdb
REMARK  211 active torsions:
REMARK  status: ('A' for Active; 'I' for Inactive)
REMARK    1  A    between atoms: _1  and  _3
REMARK    2  A    between atoms: _3  and  _4
REMARK    3  A    between atoms: _3  and  _6
REMARK    4  A    between atoms: _6  and  _7
REMARK    5  A    between atoms: _7  and  _8
REMARK    6  A    between atoms: _11  and  _13
REMARK    7  A    between atoms: _13  and  _14
REMARK    8  A    between atoms: _13  and  _16
REMARK    9  A    between atoms: _16  and  _17
REMARK   10  A    between atoms: _27  and  _29
REMARK   11  A    between atoms: _29  and  _30
REMARK   12  A    between atoms: _33  and  _35
REMARK   13  A    between atoms: _35  and  _36
REMARK   14  A    between atoms: _35  and  _38
REMARK   15  A    between atoms: _38  and  _39
REMARK   16  A    between atoms: _39  and  _40
REMARK   17  A    between atoms: _42  and  _44
REMARK   18  A    between atoms: _44  and  _45
REMARK   19  A    between atoms: _44  and  _47
REMARK   20  A    between atoms: _47  and  _48
REMARK   21  A    between atoms: _53  and  _55
REMARK   22  A    between atoms: _55  and  _56
REMARK   23  A    between atoms: _55  and  _58
REMARK   24  A    between atoms: _61  and  _63
REMARK   25  A    between atoms: _63  and  _64
REMARK   26  A    between atoms: _66  and  _68
REMARK   27  A    between atoms: _68  and  _69
REMARK   28  A    between atoms: _68  and  _71
REMARK   29  A    between atoms: _71  and  _72
REMARK   30  A    between atoms: _72  and  _73
REMARK   31  A    between atoms: _73  and  _74
REMARK   32  A    between atoms: _74  and  _75
REMARK   33  A    between atoms: _79  and  _81
REMARK   34  A    between atoms: _81  and  _82
REMARK   35  A    between atoms: _81  and  _84
REMARK   36  A    between atoms: _84  and  _85
REMARK   37  A    between atoms: _85  and  _86
REMARK   38  A    between atoms: _89  and  _91
REMARK   39  A    between atoms: _91  and  _92
REMARK   40  A    between atoms: _91  and  _94
REMARK   41  A    between atoms: _94  and  _95
REMARK   42  A    between atoms: _98  and  _100
REMARK   43  A    between atoms: _100  and  _101
REMARK   44  A    between atoms: _103  and  _105
REMARK   45  A    between atoms: _105  and  _106
REMARK   46  A    between atoms: _109  and  _111
REMARK   47  A    between atoms: _111  and  _112
REMARK   48  A    between atoms: _111  and  _114
REMARK   49  A    between atoms: _114  and  _115
REMARK   50  A    between atoms: _120  and  _121
REMARK   51  A    between atoms: _123  and  _125
REMARK   52  A    between atoms: _125  and  _126
REMARK   53  A    between atoms: _125  and  _128
REMARK   54  A    between atoms: _130  and  _132
REMARK   55  A    between atoms: _132  and  _133
REMARK   56  A    between atoms: _135  and  _137
REMARK   57  A    between atoms: _137  and  _138
REMARK   58  A    between atoms: _137  and  _140
REMARK   59  A    between atoms: _140  and  _141
REMARK   60  A    between atoms: _144  and  _146
REMARK   61  A    between atoms: _146  and  _147
REMARK   62  A    between atoms: _146  and  _149
REMARK   63  A    between atoms: _150  and  _151
REMARK   64  A    between atoms: _153  and  _155
REMARK   65  A    between atoms: _155  and  _156
REMARK   66  A    between atoms: _155  and  _158
REMARK   67  A    between atoms: _158  and  _159
REMARK   68  A    between atoms: _159  and  _160
REMARK   69  A    between atoms: _163  and  _165
REMARK   70  A    between atoms: _165  and  _166
REMARK   71  A    between atoms: _165  and  _168
REMARK   72  A    between atoms: _168  and  _169
REMARK   73  A    between atoms: _172  and  _174
REMARK   74  A    between atoms: _174  and  _175
REMARK   75  A    between atoms: _174  and  _177
REMARK   76  A    between atoms: _177  and  _178
REMARK   77  A    between atoms: _184  and  _185
REMARK   78  A    between atoms: _190  and  _192
REMARK   79  A    between atoms: _192  and  _193
REMARK   80  A    between atoms: _192  and  _195
REMARK   81  A    between atoms: _195  and  _196
REMARK   82  A    between atoms: _199  and  _201
REMARK   83  A    between atoms: _201  and  _202
REMARK   84  A    between atoms: _201  and  _204
REMARK   85  A    between atoms: _206  and  _208
REMARK   86  A    between atoms: _208  and  _209
REMARK   87  A    between atoms: _212  and  _214
REMARK   88  A    between atoms: _214  and  _215
REMARK   89  A    between atoms: _214  and  _217
REMARK   90  A    between atoms: _217  and  _218
REMARK   91  A    between atoms: _221  and  _223
REMARK   92  A    between atoms: _223  and  _224
REMARK   93  A    between atoms: _223  and  _226
REMARK   94  A    between atoms: _226  and  _227
REMARK   95  A    between atoms: _230  and  _232
REMARK   96  A    between atoms: _232  and  _233
REMARK   97  A    between atoms: _232  and  _235
REMARK   98  A    between atoms: _235  and  _236
REMARK   99  A    between atoms: _241  and  _243
REMARK  100  A    between atoms: _243  and  _244
REMARK  101  A    between atoms: _246  and  _248
REMARK  102  A    between atoms: _248  and  _249
REMARK  103  A    between atoms: _252  and  _254
REMARK  104  A    between atoms: _254  and  _255
REMARK  105  A    between atoms: _254  and  _257
REMARK  106  A    between atoms: _257  and  _258
REMARK  107  A    between atoms: _260  and  _262
REMARK  108  A    between atoms: _262  and  _263
REMARK  109  A    between atoms: _262  and  _265
REMARK  110  A    between atoms: _265  and  _266
REMARK  111  A    between atoms: _266  and  _267
REMARK  112  A    between atoms: _272  and  _274
REMARK  113  A    between atoms: _274  and  _275
REMARK  114  A    between atoms: _274  and  _277
REMARK  115  A    between atoms: _277  and  _278
REMARK  116  A    between atoms: _281  and  _283
REMARK  117  A    between atoms: _283  and  _284
REMARK  118  A    between atoms: _283  and  _286
REMARK  119  A    between atoms: _286  and  _287
REMARK  120  A    between atoms: _290  and  _292
REMARK  121  A    between atoms: _292  and  _293
REMARK  122  A    between atoms: _292  and  _295
REMARK  123  A    between atoms: _295  and  _296
REMARK  124  A    between atoms: _299  and  _301
REMARK  125  A    between atoms: _301  and  _302
REMARK  126  A    between atoms: _301  and  _304
REMARK  127  A    between atoms: _304  and  _305
REMARK  128  A    between atoms: _311  and  _313
REMARK  129  A    between atoms: _313  and  _314
REMARK  130  A    between atoms: _313  and  _316
REMARK  131  A    between atoms: _316  and  _317
REMARK  132  A    between atoms: _320  and  _322
REMARK  133  A    between atoms: _322  and  _323
REMARK  134  A    between atoms: _322  and  _325
REMARK  135  A    between atoms: _325  and  _326
REMARK  136  A    between atoms: _326  and  _327
REMARK  137  A    between atoms: _327  and  MG_517
REMARK  138  A    between atoms: _329  and  _331
REMARK  139  A    between atoms: _331  and  _332
REMARK  140  A    between atoms: _331  and  _334
REMARK  141  A    between atoms: _334  and  _335
REMARK  142  A    between atoms: _340  and  _342
REMARK  143  A    between atoms: _342  and  _343
REMARK  144  A    between atoms: _342  and  _345
REMARK  145  A    between atoms: _345  and  _346
REMARK  146  A    between atoms: _356  and  _358
REMARK  147  A    between atoms: _358  and  _359
REMARK  148  A    between atoms: _358  and  _361
REMARK  149  A    between atoms: _361  and  _362
REMARK  150  A    between atoms: _362  and  _363
REMARK  151  A    between atoms: _363  and  _364
REMARK  152  A    between atoms: _364  and  _365
REMARK  153  A    between atoms: _369  and  _371
REMARK  154  A    between atoms: _371  and  _372
REMARK  155  A    between atoms: _371  and  _374
REMARK  156  A    between atoms: _374  and  _375
REMARK  157  A    between atoms: _378  and  _380
REMARK  158  A    between atoms: _380  and  _381
REMARK  159  A    between atoms: _380  and  _383
REMARK  160  A    between atoms: _383  and  _384
REMARK  161  A    between atoms: _384  and  _385
REMARK  162  A    between atoms: _385  and  _386
REMARK  163  A    between atoms: _395  and  _397
REMARK  164  A    between atoms: _397  and  _398
REMARK  165  A    between atoms: _397  and  _400
REMARK  166  A    between atoms: _400  and  _401
REMARK  167  A    between atoms: _406  and  _407
REMARK  168  A    between atoms: _409  and  _411
REMARK  169  A    between atoms: _411  and  _412
REMARK  170  A    between atoms: _411  and  _414
REMARK  171  A    between atoms: _414  and  _415
REMARK  172  A    between atoms: _418  and  _420
REMARK  173  A    between atoms: _420  and  _421
REMARK  174  A    between atoms: _420  and  _423
REMARK  175  A    between atoms: _423  and  _424
REMARK  176  A    between atoms: _427  and  _429
REMARK  177  A    between atoms: _429  and  _430
REMARK  178  A    between atoms: _429  and  _432
REMARK  179  A    between atoms: _432  and  _433
REMARK  180  A    between atoms: _438  and  _440
REMARK  181  A    between atoms: _440  and  _441
REMARK  182  A    between atoms: _440  and  _443
REMARK  183  A    between atoms: _446  and  _448
REMARK  184  A    between atoms: _448  and  _449
REMARK  185  A    between atoms: _448  and  _451
REMARK  186  A    between atoms: _455  and  _456
REMARK  187  A    between atoms: _461  and  _463
REMARK  188  A    between atoms: _463  and  _464
REMARK  189  A    between atoms: _466  and  _468
REMARK  190  A    between atoms: _468  and  _469
REMARK  191  A    between atoms: _468  and  _471
REMARK  192  A    between atoms: _471  and  _472
REMARK  193  A    between atoms: _475  and  _477
REMARK  194  A    between atoms: _477  and  _478
REMARK  195  A    between atoms: _477  and  _480
REMARK  196  A    between atoms: _480  and  _481
REMARK  197  A    between atoms: _484  and  _486
REMARK  198  A    between atoms: _486  and  _487
REMARK  199  A    between atoms: _486  and  _489
REMARK  200  A    between atoms: _489  and  _490
REMARK  201  A    between atoms: _490  and  _491
REMARK  202  A    between atoms: _494  and  _496
REMARK  203  A    between atoms: _496  and  _497
REMARK  204  A    between atoms: _496  and  _499
REMARK  205  A    between atoms: _499  and  _500
REMARK  206  A    between atoms: _505  and  _506
REMARK  207  A    between atoms: _508  and  _510
REMARK  208  A    between atoms: _510  and  _511
REMARK  209  A    between atoms: _510  and  _513
REMARK  210  A    between atoms: _513  and  _514
REMARK  211  A    between atoms: _514  and  _515
REMARK                            x       y       z     vdW  Elec       q    Type
REMARK                         _______ _______ _______ _____ _____    ______ ____
ROOT
ATOM      1  O   HOH     1      38.670  -1.399  -2.348  0.00  0.00    +0.000 OA
ENDROOT
TORSDOF 0
REMARK  Name = ../refined-set-2016/3ozt/3ozt_pocket.pdb
REMARK  211 active torsions:
REMARK  status: ('A' for Active; 'I' for Inactive)
REMARK    1  A    between atoms: _1  and  _3
REMARK    2  A    between atoms: _3  and  _4
REMARK    3  A    between atoms: _3  and  _6
REMARK    4  A    between atoms: _6  and  _7
REMARK    5  A    between atoms: _7  and  _8
REMARK    6  A    between atoms: _11  and  _13
REMARK    7  A    between atoms: _13  and  _14
REMARK    8  A    between atoms: _13  and  _16
REMARK    9  A    between atoms: _16  and  _17
REMARK   10  A    between atoms: _27  and  _29
REMARK   11  A    between atoms: _29  and  _30
REMARK   12  A    between atoms: _33  and  _35
REMARK   13  A    between atoms: _35  and  _36
REMARK   14  A    between atoms: _35  and  _38
REMARK   15  A    between atoms: _38  and  _39
REMARK   16  A    between atoms: _39  and  _40
REMARK   17  A    between atoms: _42  and  _44
REMARK   18  A    between atoms: _44  and  _45
REMARK   19  A    between atoms: _44  and  _47
REMARK   20  A    between atoms: _47  and  _48
REMARK   21  A    between atoms: _53  and  _55
REMARK   22  A    between atoms: _55  and  _56
REMARK   23  A    between atoms: _55  and  _58
REMARK   24  A    between atoms: _61  and  _63
REMARK   25  A    between atoms: _63  and  _64
REMARK   26  A    between atoms: _66  and  _68
REMARK   27  A    between atoms: _68  and  _69
REMARK   28  A    between atoms: _68  and  _71
REMARK   29  A    between atoms: _71  and  _72
REMARK   30  A    between atoms: _72  and  _73
REMARK   31  A    between atoms: _73  and  _74
REMARK   32  A    between atoms: _74  and  _75
REMARK   33  A    between atoms: _79  and  _81
REMARK   34  A    between atoms: _81  and  _82
REMARK   35  A    between atoms: _81  and  _84
REMARK   36  A    between atoms: _84  and  _85
REMARK   37  A    between atoms: _85  and  _86
REMARK   38  A    between atoms: _89  and  _91
REMARK   39  A    between atoms: _91  and  _92
REMARK   40  A    between atoms: _91  and  _94
REMARK   41  A    between atoms: _94  and  _95
REMARK   42  A    between atoms: _98  and  _100
REMARK   43  A    between atoms: _100  and  _101
REMARK   44  A    between atoms: _103  and  _105
REMARK   45  A    between atoms: _105  and  _106
REMARK   46  A    between atoms: _109  and  _111
REMARK   47  A    between atoms: _111  and  _112
REMARK   48  A    between atoms: _111  and  _114
REMARK   49  A    between atoms: _114  and  _115
REMARK   50  A    between atoms: _120  and  _121
REMARK   51  A    between atoms: _123  and  _125
REMARK   52  A    between atoms: _125  and  _126
REMARK   53  A    between atoms: _125  and  _128
REMARK   54  A    between atoms: _130  and  _132
REMARK   55  A    between atoms: _132  and  _133
REMARK   56  A    between atoms: _135  and  _137
REMARK   57  A    between atoms: _137  and  _138
REMARK   58  A    between atoms: _137  and  _140
REMARK   59  A    between atoms: _140  and  _141
REMARK   60  A    between atoms: _144  and  _146
REMARK   61  A    between atoms: _146  and  _147
REMARK   62  A    between atoms: _146  and  _149
REMARK   63  A    between atoms: _150  and  _151
REMARK   64  A    between atoms: _153  and  _155
REMARK   65  A    between atoms: _155  and  _156
REMARK   66  A    between atoms: _155  and  _158
REMARK   67  A    between atoms: _158  and  _159
REMARK   68  A    between atoms: _159  and  _160
REMARK   69  A    between atoms: _163  and  _165
REMARK   70  A    between atoms: _165  and  _166
REMARK   71  A    between atoms: _165  and  _168
REMARK   72  A    between atoms: _168  and  _169
REMARK   73  A    between atoms: _172  and  _174
REMARK   74  A    between atoms: _174  and  _175
REMARK   75  A    between atoms: _174  and  _177
REMARK   76  A    between atoms: _177  and  _178
REMARK   77  A    between atoms: _184  and  _185
REMARK   78  A    between atoms: _190  and  _192
REMARK   79  A    between atoms: _192  and  _193
REMARK   80  A    between atoms: _192  and  _195
REMARK   81  A    between atoms: _195  and  _196
REMARK   82  A    between atoms: _199  and  _201
REMARK   83  A    between atoms: _201  and  _202
REMARK   84  A    between atoms: _201  and  _204
REMARK   85  A    between atoms: _206  and  _208
REMARK   86  A    between atoms: _208  and  _209
REMARK   87  A    between atoms: _212  and  _214
REMARK   88  A    between atoms: _214  and  _215
REMARK   89  A    between atoms: _214  and  _217
REMARK   90  A    between atoms: _217  and  _218
REMARK   91  A    between atoms: _221  and  _223
REMARK   92  A    between atoms: _223  and  _224
REMARK   93  A    between atoms: _223  and  _226
REMARK   94  A    between atoms: _226  and  _227
REMARK   95  A    between atoms: _230  and  _232
REMARK   96  A    between atoms: _232  and  _233
REMARK   97  A    between atoms: _232  and  _235
REMARK   98  A    between atoms: _235  and  _236
REMARK   99  A    between atoms: _241  and  _243
REMARK  100  A    between atoms: _243  and  _244
REMARK  101  A    between atoms: _246  and  _248
REMARK  102  A    between atoms: _248  and  _249
REMARK  103  A    between atoms: _252  and  _254
REMARK  104  A    between atoms: _254  and  _255
REMARK  105  A    between atoms: _254  and  _257
REMARK  106  A    between atoms: _257  and  _258
REMARK  107  A    between atoms: _260  and  _262
REMARK  108  A    between atoms: _262  and  _263
REMARK  109  A    between atoms: _262  and  _265
REMARK  110  A    between atoms: _265  and  _266
REMARK  111  A    between atoms: _266  and  _267
REMARK  112  A    between atoms: _272  and  _274
REMARK  113  A    between atoms: _274  and  _275
REMARK  114  A    between atoms: _274  and  _277
REMARK  115  A    between atoms: _277  and  _278
REMARK  116  A    between atoms: _281  and  _283
REMARK  117  A    between atoms: _283  and  _284
REMARK  118  A    between atoms: _283  and  _286
REMARK  119  A    between atoms: _286  and  _287
REMARK  120  A    between atoms: _290  and  _292
REMARK  121  A    between atoms: _292  and  _293
REMARK  122  A    between atoms: _292  and  _295
REMARK  123  A    between atoms: _295  and  _296
REMARK  124  A    between atoms: _299  and  _301
REMARK  125  A    between atoms: _301  and  _302
REMARK  126  A    between atoms: _301  and  _304
REMARK  127  A    between atoms: _304  and  _305
REMARK  128  A    between atoms: _311  and  _313
REMARK  129  A    between atoms: _313  and  _314
REMARK  130  A    between atoms: _313  and  _316
REMARK  131  A    between atoms: _316  and  _317
REMARK  132  A    between atoms: _320  and  _322
REMARK  133  A    between atoms: _322  and  _323
REMARK  134  A    between atoms: _322  and  _325
REMARK  135  A    between atoms: _325  and  _326
REMARK  136  A    between atoms: _326  and  _327
REMARK  137  A    between atoms: _327  and  MG_517
REMARK  138  A    between atoms: _329  and  _331
REMARK  139  A    between atoms: _331  and  _332
REMARK  140  A    between atoms: _331  and  _334
REMARK  141  A    between atoms: _334  and  _335
REMARK  142  A    between atoms: _340  and  _342
REMARK  143  A    between atoms: _342  and  _343
REMARK  144  A    between atoms: _342  and  _345
REMARK  145  A    between atoms: _345  and  _346
REMARK  146  A    between atoms: _356  and  _358
REMARK  147  A    between atoms: _358  and  _359
REMARK  148  A    between atoms: _358  and  _361
REMARK  149  A    between atoms: _361  and  _362
REMARK  150  A    between atoms: _362  and  _363
REMARK  151  A    between atoms: _363  and  _364
REMARK  152  A    between atoms: _364  and  _365
REMARK  153  A    between atoms: _369  and  _371
REMARK  154  A    between atoms: _371  and  _372
REMARK  155  A    between atoms: _371  and  _374
REMARK  156  A    between atoms: _374  and  _375
REMARK  157  A    between atoms: _378  and  _380
REMARK  158  A    between atoms: _380  and  _381
REMARK  159  A    between atoms: _380  and  _383
REMARK  160  A    between atoms: _383  and  _384
REMARK  161  A    between atoms: _384  and  _385
REMARK  162  A    between atoms: _385  and  _386
REMARK  163  A    between atoms: _395  and  _397
REMARK  164  A    between atoms: _397  and  _398
REMARK  165  A    between atoms: _397  and  _400
REMARK  166  A    between atoms: _400  and  _401
REMARK  167  A    between atoms: _406  and  _407
REMARK  168  A    between atoms: _409  and  _411
REMARK  169  A    between atoms: _411  and  _412
REMARK  170  A    between atoms: _411  and  _414
REMARK  171  A    between atoms: _414  and  _415
REMARK  172  A    between atoms: _418  and  _420
REMARK  173  A    between atoms: _420  and  _421
REMARK  174  A    between atoms: _420  and  _423
REMARK  175  A    between atoms: _423  and  _424
REMARK  176  A    between atoms: _427  and  _429
REMARK  177  A    between atoms: _429  and  _430
REMARK  178  A    between atoms: _429  and  _432
REMARK  179  A    between atoms: _432  and  _433
REMARK  180  A    between atoms: _438  and  _440
REMARK  181  A    between atoms: _440  and  _441
REMARK  182  A    between atoms: _440  and  _443
REMARK  183  A    between atoms: _446  and  _448
REMARK  184  A    between atoms: _448  and  _449
REMARK  185  A    between atoms: _448  and  _451
REMARK  186  A    between atoms: _455  and  _456
REMARK  187  A    between atoms: _461  and  _463
REMARK  188  A    between atoms: _463  and  _464
REMARK  189  A    between atoms: _466  and  _468
REMARK  190  A    between atoms: _468  and  _469
REMARK  191  A    between atoms: _468  and  _471
REMARK  192  A    between atoms: _471  and  _472
REMARK  193  A    between atoms: _475  and  _477
REMARK  194  A    between atoms: _477  and  _478
REMARK  195  A    between atoms: _477  and  _480
REMARK  196  A    between atoms: _480  and  _481
REMARK  197  A    between atoms: _484  and  _486
REMARK  198  A    between atoms: _486  and  _487
REMARK  199  A    between atoms: _486  and  _489
REMARK  200  A    between atoms: _489  and  _490
REMARK  201  A    between atoms: _490  and  _491
REMARK  202  A    between atoms: _494  and  _496
REMARK  203  A    between atoms: _496  and  _497
REMARK  204  A    between atoms: _496  and  _499
REMARK  205  A    between atoms: _499  and  _500
REMARK  206  A    between atoms: _505  and  _506
REMARK  207  A    between atoms: _508  and  _510
REMARK  208  A    between atoms: _510  and  _511
REMARK  209  A    between atoms: _510  and  _513
REMARK  210  A    between atoms: _513  and  _514
REMARK  211  A    between atoms: _514  and  _515
REMARK                            x       y       z     vdW  Elec       q    Type
REMARK                         _______ _______ _______ _____ _____    ______ ____
ROOT
ATOM      1  O   HOH     1      37.977   1.938  -3.479  0.00  0.00    +0.000 OA
ENDROOT
TORSDOF 0
REMARK  Name = ../refined-set-2016/3ozt/3ozt_pocket.pdb
REMARK  211 active torsions:
REMARK  status: ('A' for Active; 'I' for Inactive)
REMARK    1  A    between atoms: _1  and  _3
REMARK    2  A    between atoms: _3  and  _4
REMARK    3  A    between atoms: _3  and  _6
REMARK    4  A    between atoms: _6  and  _7
REMARK    5  A    between atoms: _7  and  _8
REMARK    6  A    between atoms: _11  and  _13
REMARK    7  A    between atoms: _13  and  _14
REMARK    8  A    between atoms: _13  and  _16
REMARK    9  A    between atoms: _16  and  _17
REMARK   10  A    between atoms: _27  and  _29
REMARK   11  A    between atoms: _29  and  _30
REMARK   12  A    between atoms: _33  and  _35
REMARK   13  A    between atoms: _35  and  _36
REMARK   14  A    between atoms: _35  and  _38
REMARK   15  A    between atoms: _38  and  _39
REMARK   16  A    between atoms: _39  and  _40
REMARK   17  A    between atoms: _42  and  _44
REMARK   18  A    between atoms: _44  and  _45
REMARK   19  A    between atoms: _44  and  _47
REMARK   20  A    between atoms: _47  and  _48
REMARK   21  A    between atoms: _53  and  _55
REMARK   22  A    between atoms: _55  and  _56
REMARK   23  A    between atoms: _55  and  _58
REMARK   24  A    between atoms: _61  and  _63
REMARK   25  A    between atoms: _63  and  _64
REMARK   26  A    between atoms: _66  and  _68
REMARK   27  A    between atoms: _68  and  _69
REMARK   28  A    between atoms: _68  and  _71
REMARK   29  A    between atoms: _71  and  _72
REMARK   30  A    between atoms: _72  and  _73
REMARK   31  A    between atoms: _73  and  _74
REMARK   32  A    between atoms: _74  and  _75
REMARK   33  A    between atoms: _79  and  _81
REMARK   34  A    between atoms: _81  and  _82
REMARK   35  A    between atoms: _81  and  _84
REMARK   36  A    between atoms: _84  and  _85
REMARK   37  A    between atoms: _85  and  _86
REMARK   38  A    between atoms: _89  and  _91
REMARK   39  A    between atoms: _91  and  _92
REMARK   40  A    between atoms: _91  and  _94
REMARK   41  A    between atoms: _94  and  _95
REMARK   42  A    between atoms: _98  and  _100
REMARK   43  A    between atoms: _100  and  _101
REMARK   44  A    between atoms: _103  and  _105
REMARK   45  A    between atoms: _105  and  _106
REMARK   46  A    between atoms: _109  and  _111
REMARK   47  A    between atoms: _111  and  _112
REMARK   48  A    between atoms: _111  and  _114
REMARK   49  A    between atoms: _114  and  _115
REMARK   50  A    between atoms: _120  and  _121
REMARK   51  A    between atoms: _123  and  _125
REMARK   52  A    between atoms: _125  and  _126
REMARK   53  A    between atoms: _125  and  _128
REMARK   54  A    between atoms: _130  and  _132
REMARK   55  A    between atoms: _132  and  _133
REMARK   56  A    between atoms: _135  and  _137
REMARK   57  A    between atoms: _137  and  _138
REMARK   58  A    between atoms: _137  and  _140
REMARK   59  A    between atoms: _140  and  _141
REMARK   60  A    between atoms: _144  and  _146
REMARK   61  A    between atoms: _146  and  _147
REMARK   62  A    between atoms: _146  and  _149
REMARK   63  A    between atoms: _150  and  _151
REMARK   64  A    between atoms: _153  and  _155
REMARK   65  A    between atoms: _155  and  _156
REMARK   66  A    between atoms: _155  and  _158
REMARK   67  A    between atoms: _158  and  _159
REMARK   68  A    between atoms: _159  and  _160
REMARK   69  A    between atoms: _163  and  _165
REMARK   70  A    between atoms: _165  and  _166
REMARK   71  A    between atoms: _165  and  _168
REMARK   72  A    between atoms: _168  and  _169
REMARK   73  A    between atoms: _172  and  _174
REMARK   74  A    between atoms: _174  and  _175
REMARK   75  A    between atoms: _174  and  _177
REMARK   76  A    between atoms: _177  and  _178
REMARK   77  A    between atoms: _184  and  _185
REMARK   78  A    between atoms: _190  and  _192
REMARK   79  A    between atoms: _192  and  _193
REMARK   80  A    between atoms: _192  and  _195
REMARK   81  A    between atoms: _195  and  _196
REMARK   82  A    between atoms: _199  and  _201
REMARK   83  A    between atoms: _201  and  _202
REMARK   84  A    between atoms: _201  and  _204
REMARK   85  A    between atoms: _206  and  _208
REMARK   86  A    between atoms: _208  and  _209
REMARK   87  A    between atoms: _212  and  _214
REMARK   88  A    between atoms: _214  and  _215
REMARK   89  A    between atoms: _214  and  _217
REMARK   90  A    between atoms: _217  and  _218
REMARK   91  A    between atoms: _221  and  _223
REMARK   92  A    between atoms: _223  and  _224
REMARK   93  A    between atoms: _223  and  _226
REMARK   94  A    between atoms: _226  and  _227
REMARK   95  A    between atoms: _230  and  _232
REMARK   96  A    between atoms: _232  and  _233
REMARK   97  A    between atoms: _232  and  _235
REMARK   98  A    between atoms: _235  and  _236
REMARK   99  A    between atoms: _241  and  _243
REMARK  100  A    between atoms: _243  and  _244
REMARK  101  A    between atoms: _246  and  _248
REMARK  102  A    between atoms: _248  and  _249
REMARK  103  A    between atoms: _252  and  _254
REMARK  104  A    between atoms: _254  and  _255
REMARK  105  A    between atoms: _254  and  _257
REMARK  106  A    between atoms: _257  and  _258
REMARK  107  A    between atoms: _260  and  _262
REMARK  108  A    between atoms: _262  and  _263
REMARK  109  A    between atoms: _262  and  _265
REMARK  110  A    between atoms: _265  and  _266
REMARK  111  A    between atoms: _266  and  _267
REMARK  112  A    between atoms: _272  and  _274
REMARK  113  A    between atoms: _274  and  _275
REMARK  114  A    between atoms: _274  and  _277
REMARK  115  A    between atoms: _277  and  _278
REMARK  116  A    between atoms: _281  and  _283
REMARK  117  A    between atoms: _283  and  _284
REMARK  118  A    between atoms: _283  and  _286
REMARK  119  A    between atoms: _286  and  _287
REMARK  120  A    between atoms: _290  and  _292
REMARK  121  A    between atoms: _292  and  _293
REMARK  122  A    between atoms: _292  and  _295
REMARK  123  A    between atoms: _295  and  _296
REMARK  124  A    between atoms: _299  and  _301
REMARK  125  A    between atoms: _301  and  _302
REMARK  126  A    between atoms: _301  and  _304
REMARK  127  A    between atoms: _304  and  _305
REMARK  128  A    between atoms: _311  and  _313
REMARK  129  A    between atoms: _313  and  _314
REMARK  130  A    between atoms: _313  and  _316
REMARK  131  A    between atoms: _316  and  _317
REMARK  132  A    between atoms: _320  and  _322
REMARK  133  A    between atoms: _322  and  _323
REMARK  134  A    between atoms: _322  and  _325
REMARK  135  A    between atoms: _325  and  _326
REMARK  136  A    between atoms: _326  and  _327
REMARK  137  A    between atoms: _327  and  MG_517
REMARK  138  A    between atoms: _329  and  _331
REMARK  139  A    between atoms: _331  and  _332
REMARK  140  A    between atoms: _331  and  _334
REMARK  141  A    between atoms: _334  and  _335
REMARK  142  A    between atoms: _340  and  _342
REMARK  143  A    between atoms: _342  and  _343
REMARK  144  A    between atoms: _342  and  _345
REMARK  145  A    between atoms: _345  and  _346
REMARK  146  A    between atoms: _356  and  _358
REMARK  147  A    between atoms: _358  and  _359
REMARK  148  A    between atoms: _358  and  _361
REMARK  149  A    between atoms: _361  and  _362
REMARK  150  A    between atoms: _362  and  _363
REMARK  151  A    between atoms: _363  and  _364
REMARK  152  A    between atoms: _364  and  _365
REMARK  153  A    between atoms: _369  and  _371
REMARK  154  A    between atoms: _371  and  _372
REMARK  155  A    between atoms: _371  and  _374
REMARK  156  A    between atoms: _374  and  _375
REMARK  157  A    between atoms: _378  and  _380
REMARK  158  A    between atoms: _380  and  _381
REMARK  159  A    between atoms: _380  and  _383
REMARK  160  A    between atoms: _383  and  _384
REMARK  161  A    between atoms: _384  and  _385
REMARK  162  A    between atoms: _385  and  _386
REMARK  163  A    between atoms: _395  and  _397
REMARK  164  A    between atoms: _397  and  _398
REMARK  165  A    between atoms: _397  and  _400
REMARK  166  A    between atoms: _400  and  _401
REMARK  167  A    between atoms: _406  and  _407
REMARK  168  A    between atoms: _409  and  _411
REMARK  169  A    between atoms: _411  and  _412
REMARK  170  A    between atoms: _411  and  _414
REMARK  171  A    between atoms: _414  and  _415
REMARK  172  A    between atoms: _418  and  _420
REMARK  173  A    between atoms: _420  and  _421
REMARK  174  A    between atoms: _420  and  _423
REMARK  175  A    between atoms: _423  and  _424
REMARK  176  A    between atoms: _427  and  _429
REMARK  177  A    between atoms: _429  and  _430
REMARK  178  A    between atoms: _429  and  _432
REMARK  179  A    between atoms: _432  and  _433
REMARK  180  A    between atoms: _438  and  _440
REMARK  181  A    between atoms: _440  and  _441
REMARK  182  A    between atoms: _440  and  _443
REMARK  183  A    between atoms: _446  and  _448
REMARK  184  A    between atoms: _448  and  _449
REMARK  185  A    between atoms: _448  and  _451
REMARK  186  A    between atoms: _455  and  _456
REMARK  187  A    between atoms: _461  and  _463
REMARK  188  A    between atoms: _463  and  _464
REMARK  189  A    between atoms: _466  and  _468
REMARK  190  A    between atoms: _468  and  _469
REMARK  191  A    between atoms: _468  and  _471
REMARK  192  A    between atoms: _471  and  _472
REMARK  193  A    between atoms: _475  and  _477
REMARK  194  A    between atoms: _477  and  _478
REMARK  195  A    between atoms: _477  and  _480
REMARK  196  A    between atoms: _480  and  _481
REMARK  197  A    between atoms: _484  and  _486
REMARK  198  A    between atoms: _486  and  _487
REMARK  199  A    between atoms: _486  and  _489
REMARK  200  A    between atoms: _489  and  _490
REMARK  201  A    between atoms: _490  and  _491
REMARK  202  A    between atoms: _494  and  _496
REMARK  203  A    between atoms: _496  and  _497
REMARK  204  A    between atoms: _496  and  _499
REMARK  205  A    between atoms: _499  and  _500
REMARK  206  A    between atoms: _505  and  _506
REMARK  207  A    between atoms: _508  and  _510
REMARK  208  A    between atoms: _510  and  _511
REMARK  209  A    between atoms: _510  and  _513
REMARK  210  A    between atoms: _513  and  _514
REMARK  211  A    between atoms: _514  and  _515
REMARK                            x       y       z     vdW  Elec       q    Type
REMARK                         _______ _______ _______ _____ _____    ______ ____
ROOT
ATOM      1  O   HOH     1      39.534  -4.468   2.416  0.00  0.00    +0.000 OA
ENDROOT
TORSDOF 0
REMARK  Name = ../refined-set-2016/3ozt/3ozt_pocket.pdb
REMARK  211 active torsions:
REMARK  status: ('A' for Active; 'I' for Inactive)
REMARK    1  A    between atoms: _1  and  _3
REMARK    2  A    between atoms: _3  and  _4
REMARK    3  A    between atoms: _3  and  _6
REMARK    4  A    between atoms: _6  and  _7
REMARK    5  A    between atoms: _7  and  _8
REMARK    6  A    between atoms: _11  and  _13
REMARK    7  A    between atoms: _13  and  _14
REMARK    8  A    between atoms: _13  and  _16
REMARK    9  A    between atoms: _16  and  _17
REMARK   10  A    between atoms: _27  and  _29
REMARK   11  A    between atoms: _29  and  _30
REMARK   12  A    between atoms: _33  and  _35
REMARK   13  A    between atoms: _35  and  _36
REMARK   14  A    between atoms: _35  and  _38
REMARK   15  A    between atoms: _38  and  _39
REMARK   16  A    between atoms: _39  and  _40
REMARK   17  A    between atoms: _42  and  _44
REMARK   18  A    between atoms: _44  and  _45
REMARK   19  A    between atoms: _44  and  _47
REMARK   20  A    between atoms: _47  and  _48
REMARK   21  A    between atoms: _53  and  _55
REMARK   22  A    between atoms: _55  and  _56
REMARK   23  A    between atoms: _55  and  _58
REMARK   24  A    between atoms: _61  and  _63
REMARK   25  A    between atoms: _63  and  _64
REMARK   26  A    between atoms: _66  and  _68
REMARK   27  A    between atoms: _68  and  _69
REMARK   28  A    between atoms: _68  and  _71
REMARK   29  A    between atoms: _71  and  _72
REMARK   30  A    between atoms: _72  and  _73
REMARK   31  A    between atoms: _73  and  _74
REMARK   32  A    between atoms: _74  and  _75
REMARK   33  A    between atoms: _79  and  _81
REMARK   34  A    between atoms: _81  and  _82
REMARK   35  A    between atoms: _81  and  _84
REMARK   36  A    between atoms: _84  and  _85
REMARK   37  A    between atoms: _85  and  _86
REMARK   38  A    between atoms: _89  and  _91
REMARK   39  A    between atoms: _91  and  _92
REMARK   40  A    between atoms: _91  and  _94
REMARK   41  A    between atoms: _94  and  _95
REMARK   42  A    between atoms: _98  and  _100
REMARK   43  A    between atoms: _100  and  _101
REMARK   44  A    between atoms: _103  and  _105
REMARK   45  A    between atoms: _105  and  _106
REMARK   46  A    between atoms: _109  and  _111
REMARK   47  A    between atoms: _111  and  _112
REMARK   48  A    between atoms: _111  and  _114
REMARK   49  A    between atoms: _114  and  _115
REMARK   50  A    between atoms: _120  and  _121
REMARK   51  A    between atoms: _123  and  _125
REMARK   52  A    between atoms: _125  and  _126
REMARK   53  A    between atoms: _125  and  _128
REMARK   54  A    between atoms: _130  and  _132
REMARK   55  A    between atoms: _132  and  _133
REMARK   56  A    between atoms: _135  and  _137
REMARK   57  A    between atoms: _137  and  _138
REMARK   58  A    between atoms: _137  and  _140
REMARK   59  A    between atoms: _140  and  _141
REMARK   60  A    between atoms: _144  and  _146
REMARK   61  A    between atoms: _146  and  _147
REMARK   62  A    between atoms: _146  and  _149
REMARK   63  A    between atoms: _150  and  _151
REMARK   64  A    between atoms: _153  and  _155
REMARK   65  A    between atoms: _155  and  _156
REMARK   66  A    between atoms: _155  and  _158
REMARK   67  A    between atoms: _158  and  _159
REMARK   68  A    between atoms: _159  and  _160
REMARK   69  A    between atoms: _163  and  _165
REMARK   70  A    between atoms: _165  and  _166
REMARK   71  A    between atoms: _165  and  _168
REMARK   72  A    between atoms: _168  and  _169
REMARK   73  A    between atoms: _172  and  _174
REMARK   74  A    between atoms: _174  and  _175
REMARK   75  A    between atoms: _174  and  _177
REMARK   76  A    between atoms: _177  and  _178
REMARK   77  A    between atoms: _184  and  _185
REMARK   78  A    between atoms: _190  and  _192
REMARK   79  A    between atoms: _192  and  _193
REMARK   80  A    between atoms: _192  and  _195
REMARK   81  A    between atoms: _195  and  _196
REMARK   82  A    between atoms: _199  and  _201
REMARK   83  A    between atoms: _201  and  _202
REMARK   84  A    between atoms: _201  and  _204
REMARK   85  A    between atoms: _206  and  _208
REMARK   86  A    between atoms: _208  and  _209
REMARK   87  A    between atoms: _212  and  _214
REMARK   88  A    between atoms: _214  and  _215
REMARK   89  A    between atoms: _214  and  _217
REMARK   90  A    between atoms: _217  and  _218
REMARK   91  A    between atoms: _221  and  _223
REMARK   92  A    between atoms: _223  and  _224
REMARK   93  A    between atoms: _223  and  _226
REMARK   94  A    between atoms: _226  and  _227
REMARK   95  A    between atoms: _230  and  _232
REMARK   96  A    between atoms: _232  and  _233
REMARK   97  A    between atoms: _232  and  _235
REMARK   98  A    between atoms: _235  and  _236
REMARK   99  A    between atoms: _241  and  _243
REMARK  100  A    between atoms: _243  and  _244
REMARK  101  A    between atoms: _246  and  _248
REMARK  102  A    between atoms: _248  and  _249
REMARK  103  A    between atoms: _252  and  _254
REMARK  104  A    between atoms: _254  and  _255
REMARK  105  A    between atoms: _254  and  _257
REMARK  106  A    between atoms: _257  and  _258
REMARK  107  A    between atoms: _260  and  _262
REMARK  108  A    between atoms: _262  and  _263
REMARK  109  A    between atoms: _262  and  _265
REMARK  110  A    between atoms: _265  and  _266
REMARK  111  A    between atoms: _266  and  _267
REMARK  112  A    between atoms: _272  and  _274
REMARK  113  A    between atoms: _274  and  _275
REMARK  114  A    between atoms: _274  and  _277
REMARK  115  A    between atoms: _277  and  _278
REMARK  116  A    between atoms: _281  and  _283
REMARK  117  A    between atoms: _283  and  _284
REMARK  118  A    between atoms: _283  and  _286
REMARK  119  A    between atoms: _286  and  _287
REMARK  120  A    between atoms: _290  and  _292
REMARK  121  A    between atoms: _292  and  _293
REMARK  122  A    between atoms: _292  and  _295
REMARK  123  A    between atoms: _295  and  _296
REMARK  124  A    between atoms: _299  and  _301
REMARK  125  A    between atoms: _301  and  _302
REMARK  126  A    between atoms: _301  and  _304
REMARK  127  A    between atoms: _304  and  _305
REMARK  128  A    between atoms: _311  and  _313
REMARK  129  A    between atoms: _313  and  _314
REMARK  130  A    between atoms: _313  and  _316
REMARK  131  A    between atoms: _316  and  _317
REMARK  132  A    between atoms: _320  and  _322
REMARK  133  A    between atoms: _322  and  _323
REMARK  134  A    between atoms: _322  and  _325
REMARK  135  A    between atoms: _325  and  _326
REMARK  136  A    between atoms: _326  and  _327
REMARK  137  A    between atoms: _327  and  MG_517
REMARK  138  A    between atoms: _329  and  _331
REMARK  139  A    between atoms: _331  and  _332
REMARK  140  A    between atoms: _331  and  _334
REMARK  141  A    between atoms: _334  and  _335
REMARK  142  A    between atoms: _340  and  _342
REMARK  143  A    between atoms: _342  and  _343
REMARK  144  A    between atoms: _342  and  _345
REMARK  145  A    between atoms: _345  and  _346
REMARK  146  A    between atoms: _356  and  _358
REMARK  147  A    between atoms: _358  and  _359
REMARK  148  A    between atoms: _358  and  _361
REMARK  149  A    between atoms: _361  and  _362
REMARK  150  A    between atoms: _362  and  _363
REMARK  151  A    between atoms: _363  and  _364
REMARK  152  A    between atoms: _364  and  _365
REMARK  153  A    between atoms: _369  and  _371
REMARK  154  A    between atoms: _371  and  _372
REMARK  155  A    between atoms: _371  and  _374
REMARK  156  A    between atoms: _374  and  _375
REMARK  157  A    between atoms: _378  and  _380
REMARK  158  A    between atoms: _380  and  _381
REMARK  159  A    between atoms: _380  and  _383
REMARK  160  A    between atoms: _383  and  _384
REMARK  161  A    between atoms: _384  and  _385
REMARK  162  A    between atoms: _385  and  _386
REMARK  163  A    between atoms: _395  and  _397
REMARK  164  A    between atoms: _397  and  _398
REMARK  165  A    between atoms: _397  and  _400
REMARK  166  A    between atoms: _400  and  _401
REMARK  167  A    between atoms: _406  and  _407
REMARK  168  A    between atoms: _409  and  _411
REMARK  169  A    between atoms: _411  and  _412
REMARK  170  A    between atoms: _411  and  _414
REMARK  171  A    between atoms: _414  and  _415
REMARK  172  A    between atoms: _418  and  _420
REMARK  173  A    between atoms: _420  and  _421
REMARK  174  A    between atoms: _420  and  _423
REMARK  175  A    between atoms: _423  and  _424
REMARK  176  A    between atoms: _427  and  _429
REMARK  177  A    between atoms: _429  and  _430
REMARK  178  A    between atoms: _429  and  _432
REMARK  179  A    between atoms: _432  and  _433
REMARK  180  A    between atoms: _438  and  _440
REMARK  181  A    between atoms: _440  and  _441
REMARK  182  A    between atoms: _440  and  _443
REMARK  183  A    between atoms: _446  and  _448
REMARK  184  A    between atoms: _448  and  _449
REMARK  185  A    between atoms: _448  and  _451
REMARK  186  A    between atoms: _455  and  _456
REMARK  187  A    between atoms: _461  and  _463
REMARK  188  A    between atoms: _463  and  _464
REMARK  189  A    between atoms: _466  and  _468
REMARK  190  A    between atoms: _468  and  _469
REMARK  191  A    between atoms: _468  and  _471
REMARK  192  A    between atoms: _471  and  _472
REMARK  193  A    between atoms: _475  and  _477
REMARK  194  A    between atoms: _477  and  _478
REMARK  195  A    between atoms: _477  and  _480
REMARK  196  A    between atoms: _480  and  _481
REMARK  197  A    between atoms: _484  and  _486
REMARK  198  A    between atoms: _486  and  _487
REMARK  199  A    between atoms: _486  and  _489
REMARK  200  A    between atoms: _489  and  _490
REMARK  201  A    between atoms: _490  and  _491
REMARK  202  A    between atoms: _494  and  _496
REMARK  203  A    between atoms: _496  and  _497
REMARK  204  A    between atoms: _496  and  _499
REMARK  205  A    between atoms: _499  and  _500
REMARK  206  A    between atoms: _505  and  _506
REMARK  207  A    between atoms: _508  and  _510
REMARK  208  A    between atoms: _510  and  _511
REMARK  209  A    between atoms: _510  and  _513
REMARK  210  A    between atoms: _513  and  _514
REMARK  211  A    between atoms: _514  and  _515
REMARK                            x       y       z     vdW  Elec       q    Type
REMARK                         _______ _______ _______ _____ _____    ______ ____
ROOT
ATOM      1  O   HOH     1      34.375   6.331 -11.177  0.00  0.00    +0.000 OA
ENDROOT
TORSDOF 0
REMARK  Name = ../refined-set-2016/3ozt/3ozt_pocket.pdb
REMARK  211 active torsions:
REMARK  status: ('A' for Active; 'I' for Inactive)
REMARK    1  A    between atoms: _1  and  _3
REMARK    2  A    between atoms: _3  and  _4
REMARK    3  A    between atoms: _3  and  _6
REMARK    4  A    between atoms: _6  and  _7
REMARK    5  A    between atoms: _7  and  _8
REMARK    6  A    between atoms: _11  and  _13
REMARK    7  A    between atoms: _13  and  _14
REMARK    8  A    between atoms: _13  and  _16
REMARK    9  A    between atoms: _16  and  _17
REMARK   10  A    between atoms: _27  and  _29
REMARK   11  A    between atoms: _29  and  _30
REMARK   12  A    between atoms: _33  and  _35
REMARK   13  A    between atoms: _35  and  _36
REMARK   14  A    between atoms: _35  and  _38
REMARK   15  A    between atoms: _38  and  _39
REMARK   16  A    between atoms: _39  and  _40
REMARK   17  A    between atoms: _42  and  _44
REMARK   18  A    between atoms: _44  and  _45
REMARK   19  A    between atoms: _44  and  _47
REMARK   20  A    between atoms: _47  and  _48
REMARK   21  A    between atoms: _53  and  _55
REMARK   22  A    between atoms: _55  and  _56
REMARK   23  A    between atoms: _55  and  _58
REMARK   24  A    between atoms: _61  and  _63
REMARK   25  A    between atoms: _63  and  _64
REMARK   26  A    between atoms: _66  and  _68
REMARK   27  A    between atoms: _68  and  _69
REMARK   28  A    between atoms: _68  and  _71
REMARK   29  A    between atoms: _71  and  _72
REMARK   30  A    between atoms: _72  and  _73
REMARK   31  A    between atoms: _73  and  _74
REMARK   32  A    between atoms: _74  and  _75
REMARK   33  A    between atoms: _79  and  _81
REMARK   34  A    between atoms: _81  and  _82
REMARK   35  A    between atoms: _81  and  _84
REMARK   36  A    between atoms: _84  and  _85
REMARK   37  A    between atoms: _85  and  _86
REMARK   38  A    between atoms: _89  and  _91
REMARK   39  A    between atoms: _91  and  _92
REMARK   40  A    between atoms: _91  and  _94
REMARK   41  A    between atoms: _94  and  _95
REMARK   42  A    between atoms: _98  and  _100
REMARK   43  A    between atoms: _100  and  _101
REMARK   44  A    between atoms: _103  and  _105
REMARK   45  A    between atoms: _105  and  _106
REMARK   46  A    between atoms: _109  and  _111
REMARK   47  A    between atoms: _111  and  _112
REMARK   48  A    between atoms: _111  and  _114
REMARK   49  A    between atoms: _114  and  _115
REMARK   50  A    between atoms: _120  and  _121
REMARK   51  A    between atoms: _123  and  _125
REMARK   52  A    between atoms: _125  and  _126
REMARK   53  A    between atoms: _125  and  _128
REMARK   54  A    between atoms: _130  and  _132
REMARK   55  A    between atoms: _132  and  _133
REMARK   56  A    between atoms: _135  and  _137
REMARK   57  A    between atoms: _137  and  _138
REMARK   58  A    between atoms: _137  and  _140
REMARK   59  A    between atoms: _140  and  _141
REMARK   60  A    between atoms: _144  and  _146
REMARK   61  A    between atoms: _146  and  _147
REMARK   62  A    between atoms: _146  and  _149
REMARK   63  A    between atoms: _150  and  _151
REMARK   64  A    between atoms: _153  and  _155
REMARK   65  A    between atoms: _155  and  _156
REMARK   66  A    between atoms: _155  and  _158
REMARK   67  A    between atoms: _158  and  _159
REMARK   68  A    between atoms: _159  and  _160
REMARK   69  A    between atoms: _163  and  _165
REMARK   70  A    between atoms: _165  and  _166
REMARK   71  A    between atoms: _165  and  _168
REMARK   72  A    between atoms: _168  and  _169
REMARK   73  A    between atoms: _172  and  _174
REMARK   74  A    between atoms: _174  and  _175
REMARK   75  A    between atoms: _174  and  _177
REMARK   76  A    between atoms: _177  and  _178
REMARK   77  A    between atoms: _184  and  _185
REMARK   78  A    between atoms: _190  and  _192
REMARK   79  A    between atoms: _192  and  _193
REMARK   80  A    between atoms: _192  and  _195
REMARK   81  A    between atoms: _195  and  _196
REMARK   82  A    between atoms: _199  and  _201
REMARK   83  A    between atoms: _201  and  _202
REMARK   84  A    between atoms: _201  and  _204
REMARK   85  A    between atoms: _206  and  _208
REMARK   86  A    between atoms: _208  and  _209
REMARK   87  A    between atoms: _212  and  _214
REMARK   88  A    between atoms: _214  and  _215
REMARK   89  A    between atoms: _214  and  _217
REMARK   90  A    between atoms: _217  and  _218
REMARK   91  A    between atoms: _221  and  _223
REMARK   92  A    between atoms: _223  and  _224
REMARK   93  A    between atoms: _223  and  _226
REMARK   94  A    between atoms: _226  and  _227
REMARK   95  A    between atoms: _230  and  _232
REMARK   96  A    between atoms: _232  and  _233
REMARK   97  A    between atoms: _232  and  _235
REMARK   98  A    between atoms: _235  and  _236
REMARK   99  A    between atoms: _241  and  _243
REMARK  100  A    between atoms: _243  and  _244
REMARK  101  A    between atoms: _246  and  _248
REMARK  102  A    between atoms: _248  and  _249
REMARK  103  A    between atoms: _252  and  _254
REMARK  104  A    between atoms: _254  and  _255
REMARK  105  A    between atoms: _254  and  _257
REMARK  106  A    between atoms: _257  and  _258
REMARK  107  A    between atoms: _260  and  _262
REMARK  108  A    between atoms: _262  and  _263
REMARK  109  A    between atoms: _262  and  _265
REMARK  110  A    between atoms: _265  and  _266
REMARK  111  A    between atoms: _266  and  _267
REMARK  112  A    between atoms: _272  and  _274
REMARK  113  A    between atoms: _274  and  _275
REMARK  114  A    between atoms: _274  and  _277
REMARK  115  A    between atoms: _277  and  _278
REMARK  116  A    between atoms: _281  and  _283
REMARK  117  A    between atoms: _283  and  _284
REMARK  118  A    between atoms: _283  and  _286
REMARK  119  A    between atoms: _286  and  _287
REMARK  120  A    between atoms: _290  and  _292
REMARK  121  A    between atoms: _292  and  _293
REMARK  122  A    between atoms: _292  and  _295
REMARK  123  A    between atoms: _295  and  _296
REMARK  124  A    between atoms: _299  and  _301
REMARK  125  A    between atoms: _301  and  _302
REMARK  126  A    between atoms: _301  and  _304
REMARK  127  A    between atoms: _304  and  _305
REMARK  128  A    between atoms: _311  and  _313
REMARK  129  A    between atoms: _313  and  _314
REMARK  130  A    between atoms: _313  and  _316
REMARK  131  A    between atoms: _316  and  _317
REMARK  132  A    between atoms: _320  and  _322
REMARK  133  A    between atoms: _322  and  _323
REMARK  134  A    between atoms: _322  and  _325
REMARK  135  A    between atoms: _325  and  _326
REMARK  136  A    between atoms: _326  and  _327
REMARK  137  A    between atoms: _327  and  MG_517
REMARK  138  A    between atoms: _329  and  _331
REMARK  139  A    between atoms: _331  and  _332
REMARK  140  A    between atoms: _331  and  _334
REMARK  141  A    between atoms: _334  and  _335
REMARK  142  A    between atoms: _340  and  _342
REMARK  143  A    between atoms: _342  and  _343
REMARK  144  A    between atoms: _342  and  _345
REMARK  145  A    between atoms: _345  and  _346
REMARK  146  A    between atoms: _356  and  _358
REMARK  147  A    between atoms: _358  and  _359
REMARK  148  A    between atoms: _358  and  _361
REMARK  149  A    between atoms: _361  and  _362
REMARK  150  A    between atoms: _362  and  _363
REMARK  151  A    between atoms: _363  and  _364
REMARK  152  A    between atoms: _364  and  _365
REMARK  153  A    between atoms: _369  and  _371
REMARK  154  A    between atoms: _371  and  _372
REMARK  155  A    between atoms: _371  and  _374
REMARK  156  A    between atoms: _374  and  _375
REMARK  157  A    between atoms: _378  and  _380
REMARK  158  A    between atoms: _380  and  _381
REMARK  159  A    between atoms: _380  and  _383
REMARK  160  A    between atoms: _383  and  _384
REMARK  161  A    between atoms: _384  and  _385
REMARK  162  A    between atoms: _385  and  _386
REMARK  163  A    between atoms: _395  and  _397
REMARK  164  A    between atoms: _397  and  _398
REMARK  165  A    between atoms: _397  and  _400
REMARK  166  A    between atoms: _400  and  _401
REMARK  167  A    between atoms: _406  and  _407
REMARK  168  A    between atoms: _409  and  _411
REMARK  169  A    between atoms: _411  and  _412
REMARK  170  A    between atoms: _411  and  _414
REMARK  171  A    between atoms: _414  and  _415
REMARK  172  A    between atoms: _418  and  _420
REMARK  173  A    between atoms: _420  and  _421
REMARK  174  A    between atoms: _420  and  _423
REMARK  175  A    between atoms: _423  and  _424
REMARK  176  A    between atoms: _427  and  _429
REMARK  177  A    between atoms: _429  and  _430
REMARK  178  A    between atoms: _429  and  _432
REMARK  179  A    between atoms: _432  and  _433
REMARK  180  A    between atoms: _438  and  _440
REMARK  181  A    between atoms: _440  and  _441
REMARK  182  A    between atoms: _440  and  _443
REMARK  183  A    between atoms: _446  and  _448
REMARK  184  A    between atoms: _448  and  _449
REMARK  185  A    between atoms: _448  and  _451
REMARK  186  A    between atoms: _455  and  _456
REMARK  187  A    between atoms: _461  and  _463
REMARK  188  A    between atoms: _463  and  _464
REMARK  189  A    between atoms: _466  and  _468
REMARK  190  A    between atoms: _468  and  _469
REMARK  191  A    between atoms: _468  and  _471
REMARK  192  A    between atoms: _471  and  _472
REMARK  193  A    between atoms: _475  and  _477
REMARK  194  A    between atoms: _477  and  _478
REMARK  195  A    between atoms: _477  and  _480
REMARK  196  A    between atoms: _480  and  _481
REMARK  197  A    between atoms: _484  and  _486
REMARK  198  A    between atoms: _486  and  _487
REMARK  199  A    between atoms: _486  and  _489
REMARK  200  A    between atoms: _489  and  _490
REMARK  201  A    between atoms: _490  and  _491
REMARK  202  A    between atoms: _494  and  _496
REMARK  203  A    between atoms: _496  and  _497
REMARK  204  A    between atoms: _496  and  _499
REMARK  205  A    between atoms: _499  and  _500
REMARK  206  A    between atoms: _505  and  _506
REMARK  207  A    between atoms: _508  and  _510
REMARK  208  A    between atoms: _510  and  _511
REMARK  209  A    between atoms: _510  and  _513
REMARK  210  A    between atoms: _513  and  _514
REMARK  211  A    between atoms: _514  and  _515
REMARK                            x       y       z     vdW  Elec       q    Type
REMARK                         _______ _______ _______ _____ _____    ______ ____
ROOT
ATOM      1  O   HOH     1      39.311  -3.661  -4.036  0.00  0.00    +0.000 OA
ENDROOT
TORSDOF 0
REMARK  Name = ../refined-set-2016/3ozt/3ozt_pocket.pdb
REMARK  211 active torsions:
REMARK  status: ('A' for Active; 'I' for Inactive)
REMARK    1  A    between atoms: _1  and  _3
REMARK    2  A    between atoms: _3  and  _4
REMARK    3  A    between atoms: _3  and  _6
REMARK    4  A    between atoms: _6  and  _7
REMARK    5  A    between atoms: _7  and  _8
REMARK    6  A    between atoms: _11  and  _13
REMARK    7  A    between atoms: _13  and  _14
REMARK    8  A    between atoms: _13  and  _16
REMARK    9  A    between atoms: _16  and  _17
REMARK   10  A    between atoms: _27  and  _29
REMARK   11  A    between atoms: _29  and  _30
REMARK   12  A    between atoms: _33  and  _35
REMARK   13  A    between atoms: _35  and  _36
REMARK   14  A    between atoms: _35  and  _38
REMARK   15  A    between atoms: _38  and  _39
REMARK   16  A    between atoms: _39  and  _40
REMARK   17  A    between atoms: _42  and  _44
REMARK   18  A    between atoms: _44  and  _45
REMARK   19  A    between atoms: _44  and  _47
REMARK   20  A    between atoms: _47  and  _48
REMARK   21  A    between atoms: _53  and  _55
REMARK   22  A    between atoms: _55  and  _56
REMARK   23  A    between atoms: _55  and  _58
REMARK   24  A    between atoms: _61  and  _63
REMARK   25  A    between atoms: _63  and  _64
REMARK   26  A    between atoms: _66  and  _68
REMARK   27  A    between atoms: _68  and  _69
REMARK   28  A    between atoms: _68  and  _71
REMARK   29  A    between atoms: _71  and  _72
REMARK   30  A    between atoms: _72  and  _73
REMARK   31  A    between atoms: _73  and  _74
REMARK   32  A    between atoms: _74  and  _75
REMARK   33  A    between atoms: _79  and  _81
REMARK   34  A    between atoms: _81  and  _82
REMARK   35  A    between atoms: _81  and  _84
REMARK   36  A    between atoms: _84  and  _85
REMARK   37  A    between atoms: _85  and  _86
REMARK   38  A    between atoms: _89  and  _91
REMARK   39  A    between atoms: _91  and  _92
REMARK   40  A    between atoms: _91  and  _94
REMARK   41  A    between atoms: _94  and  _95
REMARK   42  A    between atoms: _98  and  _100
REMARK   43  A    between atoms: _100  and  _101
REMARK   44  A    between atoms: _103  and  _105
REMARK   45  A    between atoms: _105  and  _106
REMARK   46  A    between atoms: _109  and  _111
REMARK   47  A    between atoms: _111  and  _112
REMARK   48  A    between atoms: _111  and  _114
REMARK   49  A    between atoms: _114  and  _115
REMARK   50  A    between atoms: _120  and  _121
REMARK   51  A    between atoms: _123  and  _125
REMARK   52  A    between atoms: _125  and  _126
REMARK   53  A    between atoms: _125  and  _128
REMARK   54  A    between atoms: _130  and  _132
REMARK   55  A    between atoms: _132  and  _133
REMARK   56  A    between atoms: _135  and  _137
REMARK   57  A    between atoms: _137  and  _138
REMARK   58  A    between atoms: _137  and  _140
REMARK   59  A    between atoms: _140  and  _141
REMARK   60  A    between atoms: _144  and  _146
REMARK   61  A    between atoms: _146  and  _147
REMARK   62  A    between atoms: _146  and  _149
REMARK   63  A    between atoms: _150  and  _151
REMARK   64  A    between atoms: _153  and  _155
REMARK   65  A    between atoms: _155  and  _156
REMARK   66  A    between atoms: _155  and  _158
REMARK   67  A    between atoms: _158  and  _159
REMARK   68  A    between atoms: _159  and  _160
REMARK   69  A    between atoms: _163  and  _165
REMARK   70  A    between atoms: _165  and  _166
REMARK   71  A    between atoms: _165  and  _168
REMARK   72  A    between atoms: _168  and  _169
REMARK   73  A    between atoms: _172  and  _174
REMARK   74  A    between atoms: _174  and  _175
REMARK   75  A    between atoms: _174  and  _177
REMARK   76  A    between atoms: _177  and  _178
REMARK   77  A    between atoms: _184  and  _185
REMARK   78  A    between atoms: _190  and  _192
REMARK   79  A    between atoms: _192  and  _193
REMARK   80  A    between atoms: _192  and  _195
REMARK   81  A    between atoms: _195  and  _196
REMARK   82  A    between atoms: _199  and  _201
REMARK   83  A    between atoms: _201  and  _202
REMARK   84  A    between atoms: _201  and  _204
REMARK   85  A    between atoms: _206  and  _208
REMARK   86  A    between atoms: _208  and  _209
REMARK   87  A    between atoms: _212  and  _214
REMARK   88  A    between atoms: _214  and  _215
REMARK   89  A    between atoms: _214  and  _217
REMARK   90  A    between atoms: _217  and  _218
REMARK   91  A    between atoms: _221  and  _223
REMARK   92  A    between atoms: _223  and  _224
REMARK   93  A    between atoms: _223  and  _226
REMARK   94  A    between atoms: _226  and  _227
REMARK   95  A    between atoms: _230  and  _232
REMARK   96  A    between atoms: _232  and  _233
REMARK   97  A    between atoms: _232  and  _235
REMARK   98  A    between atoms: _235  and  _236
REMARK   99  A    between atoms: _241  and  _243
REMARK  100  A    between atoms: _243  and  _244
REMARK  101  A    between atoms: _246  and  _248
REMARK  102  A    between atoms: _248  and  _249
REMARK  103  A    between atoms: _252  and  _254
REMARK  104  A    between atoms: _254  and  _255
REMARK  105  A    between atoms: _254  and  _257
REMARK  106  A    between atoms: _257  and  _258
REMARK  107  A    between atoms: _260  and  _262
REMARK  108  A    between atoms: _262  and  _263
REMARK  109  A    between atoms: _262  and  _265
REMARK  110  A    between atoms: _265  and  _266
REMARK  111  A    between atoms: _266  and  _267
REMARK  112  A    between atoms: _272  and  _274
REMARK  113  A    between atoms: _274  and  _275
REMARK  114  A    between atoms: _274  and  _277
REMARK  115  A    between atoms: _277  and  _278
REMARK  116  A    between atoms: _281  and  _283
REMARK  117  A    between atoms: _283  and  _284
REMARK  118  A    between atoms: _283  and  _286
REMARK  119  A    between atoms: _286  and  _287
REMARK  120  A    between atoms: _290  and  _292
REMARK  121  A    between atoms: _292  and  _293
REMARK  122  A    between atoms: _292  and  _295
REMARK  123  A    between atoms: _295  and  _296
REMARK  124  A    between atoms: _299  and  _301
REMARK  125  A    between atoms: _301  and  _302
REMARK  126  A    between atoms: _301  and  _304
REMARK  127  A    between atoms: _304  and  _305
REMARK  128  A    between atoms: _311  and  _313
REMARK  129  A    between atoms: _313  and  _314
REMARK  130  A    between atoms: _313  and  _316
REMARK  131  A    between atoms: _316  and  _317
REMARK  132  A    between atoms: _320  and  _322
REMARK  133  A    between atoms: _322  and  _323
REMARK  134  A    between atoms: _322  and  _325
REMARK  135  A    between atoms: _325  and  _326
REMARK  136  A    between atoms: _326  and  _327
REMARK  137  A    between atoms: _327  and  MG_517
REMARK  138  A    between atoms: _329  and  _331
REMARK  139  A    between atoms: _331  and  _332
REMARK  140  A    between atoms: _331  and  _334
REMARK  141  A    between atoms: _334  and  _335
REMARK  142  A    between atoms: _340  and  _342
REMARK  143  A    between atoms: _342  and  _343
REMARK  144  A    between atoms: _342  and  _345
REMARK  145  A    between atoms: _345  and  _346
REMARK  146  A    between atoms: _356  and  _358
REMARK  147  A    between atoms: _358  and  _359
REMARK  148  A    between atoms: _358  and  _361
REMARK  149  A    between atoms: _361  and  _362
REMARK  150  A    between atoms: _362  and  _363
REMARK  151  A    between atoms: _363  and  _364
REMARK  152  A    between atoms: _364  and  _365
REMARK  153  A    between atoms: _369  and  _371
REMARK  154  A    between atoms: _371  and  _372
REMARK  155  A    between atoms: _371  and  _374
REMARK  156  A    between atoms: _374  and  _375
REMARK  157  A    between atoms: _378  and  _380
REMARK  158  A    between atoms: _380  and  _381
REMARK  159  A    between atoms: _380  and  _383
REMARK  160  A    between atoms: _383  and  _384
REMARK  161  A    between atoms: _384  and  _385
REMARK  162  A    between atoms: _385  and  _386
REMARK  163  A    between atoms: _395  and  _397
REMARK  164  A    between atoms: _397  and  _398
REMARK  165  A    between atoms: _397  and  _400
REMARK  166  A    between atoms: _400  and  _401
REMARK  167  A    between atoms: _406  and  _407
REMARK  168  A    between atoms: _409  and  _411
REMARK  169  A    between atoms: _411  and  _412
REMARK  170  A    between atoms: _411  and  _414
REMARK  171  A    between atoms: _414  and  _415
REMARK  172  A    between atoms: _418  and  _420
REMARK  173  A    between atoms: _420  and  _421
REMARK  174  A    between atoms: _420  and  _423
REMARK  175  A    between atoms: _423  and  _424
REMARK  176  A    between atoms: _427  and  _429
REMARK  177  A    between atoms: _429  and  _430
REMARK  178  A    between atoms: _429  and  _432
REMARK  179  A    between atoms: _432  and  _433
REMARK  180  A    between atoms: _438  and  _440
REMARK  181  A    between atoms: _440  and  _441
REMARK  182  A    between atoms: _440  and  _443
REMARK  183  A    between atoms: _446  and  _448
REMARK  184  A    between atoms: _448  and  _449
REMARK  185  A    between atoms: _448  and  _451
REMARK  186  A    between atoms: _455  and  _456
REMARK  187  A    between atoms: _461  and  _463
REMARK  188  A    between atoms: _463  and  _464
REMARK  189  A    between atoms: _466  and  _468
REMARK  190  A    between atoms: _468  and  _469
REMARK  191  A    between atoms: _468  and  _471
REMARK  192  A    between atoms: _471  and  _472
REMARK  193  A    between atoms: _475  and  _477
REMARK  194  A    between atoms: _477  and  _478
REMARK  195  A    between atoms: _477  and  _480
REMARK  196  A    between atoms: _480  and  _481
REMARK  197  A    between atoms: _484  and  _486
REMARK  198  A    between atoms: _486  and  _487
REMARK  199  A    between atoms: _486  and  _489
REMARK  200  A    between atoms: _489  and  _490
REMARK  201  A    between atoms: _490  and  _491
REMARK  202  A    between atoms: _494  and  _496
REMARK  203  A    between atoms: _496  and  _497
REMARK  204  A    between atoms: _496  and  _499
REMARK  205  A    between atoms: _499  and  _500
REMARK  206  A    between atoms: _505  and  _506
REMARK  207  A    between atoms: _508  and  _510
REMARK  208  A    between atoms: _510  and  _511
REMARK  209  A    between atoms: _510  and  _513
REMARK  210  A    between atoms: _513  and  _514
REMARK  211  A    between atoms: _514  and  _515
REMARK                            x       y       z     vdW  Elec       q    Type
REMARK                         _______ _______ _______ _____ _____    ______ ____
ROOT
ATOM      1  O   HOH     1      34.756  -6.312 -10.116  0.00  0.00    +0.000 OA
ENDROOT
TORSDOF 0
