REMARK  Name = ../refined-set-2016/3g1d/3g1d_pocket.pdb
REMARK  207 active torsions:
REMARK  status: ('A' for Active; 'I' for Inactive)
REMARK    1  A    between atoms: _1  and  _3
REMARK    2  A    between atoms: _3  and  _4
REMARK    3  A    between atoms: _3  and  _6
REMARK    4  A    between atoms: _6  and  _7
REMARK    5  A    between atoms: _10  and  _12
REMARK    6  A    between atoms: _12  and  _13
REMARK    7  A    between atoms: _12  and  _15
REMARK    8  A    between atoms: _15  and  _16
REMARK    9  A    between atoms: _19  and  _21
REMARK   10  A    between atoms: _21  and  _22
REMARK   11  A    between atoms: _25  and  _27
REMARK   12  A    between atoms: _27  and  _28
REMARK   13  A    between atoms: _27  and  _30
REMARK   14  A    between atoms: _30  and  _31
REMARK   15  A    between atoms: _31  and  _32
REMARK   16  A    between atoms: _34  and  _36
REMARK   17  A    between atoms: _36  and  _37
REMARK   18  A    between atoms: _36  and  _39
REMARK   19  A    between atoms: _39  and  _40
REMARK   20  A    between atoms: _43  and  _45
REMARK   21  A    between atoms: _45  and  _46
REMARK   22  A    between atoms: _45  and  _48
REMARK   23  A    between atoms: _48  and  _49
REMARK   24  A    between atoms: _49  and  _50
REMARK   25  A    between atoms: _50  and  _51
REMARK   26  A    between atoms: _51  and  _52
REMARK   27  A    between atoms: _56  and  _58
REMARK   28  A    between atoms: _58  and  _59
REMARK   29  A    between atoms: _58  and  _61
REMARK   30  A    between atoms: _61  and  _62
REMARK   31  A    between atoms: _65  and  _67
REMARK   32  A    between atoms: _67  and  _68
REMARK   33  A    between atoms: _70  and  _72
REMARK   34  A    between atoms: _72  and  _73
REMARK   35  A    between atoms: _72  and  _75
REMARK   36  A    between atoms: _75  and  _76
REMARK   37  A    between atoms: _81  and  _82
REMARK   38  A    between atoms: _85  and  _86
REMARK   39  A    between atoms: _91  and  _93
REMARK   40  A    between atoms: _93  and  _94
REMARK   41  A    between atoms: _93  and  _96
REMARK   42  A    between atoms: _96  and  _97
REMARK   43  A    between atoms: _100  and  _102
REMARK   44  A    between atoms: _102  and  _103
REMARK   45  A    between atoms: _102  and  _105
REMARK   46  A    between atoms: _105  and  _106
REMARK   47  A    between atoms: _109  and  _111
REMARK   48  A    between atoms: _111  and  _112
REMARK   49  A    between atoms: _111  and  _114
REMARK   50  A    between atoms: _114  and  _115
REMARK   51  A    between atoms: _115  and  _116
REMARK   52  A    between atoms: _116  and  _117
REMARK   53  A    between atoms: _117  and  _118
REMARK   54  A    between atoms: _122  and  _124
REMARK   55  A    between atoms: _124  and  _125
REMARK   56  A    between atoms: _124  and  _127
REMARK   57  A    between atoms: _127  and  _128
REMARK   58  A    between atoms: _131  and  _133
REMARK   59  A    between atoms: _133  and  _134
REMARK   60  A    between atoms: _133  and  _136
REMARK   61  A    between atoms: _136  and  _137
REMARK   62  A    between atoms: _142  and  _144
REMARK   63  A    between atoms: _144  and  _145
REMARK   64  A    between atoms: _144  and  _147
REMARK   65  A    between atoms: _147  and  _148
REMARK   66  A    between atoms: _151  and  _153
REMARK   67  A    between atoms: _153  and  _154
REMARK   68  A    between atoms: _153  and  _156
REMARK   69  A    between atoms: _156  and  _157
REMARK   70  A    between atoms: _160  and  _162
REMARK   71  A    between atoms: _162  and  _163
REMARK   72  A    between atoms: _162  and  _165
REMARK   73  A    between atoms: _165  and  _166
REMARK   74  A    between atoms: _166  and  _167
REMARK   75  A    between atoms: _170  and  _172
REMARK   76  A    between atoms: _172  and  _173
REMARK   77  A    between atoms: _172  and  _175
REMARK   78  A    between atoms: _175  and  _176
REMARK   79  A    between atoms: _176  and  _177
REMARK   80  A    between atoms: _179  and  _181
REMARK   81  A    between atoms: _181  and  _182
REMARK   82  A    between atoms: _181  and  _184
REMARK   83  A    between atoms: _184  and  _185
REMARK   84  A    between atoms: _187  and  _189
REMARK   85  A    between atoms: _189  and  _190
REMARK   86  A    between atoms: _189  and  _192
REMARK   87  A    between atoms: _192  and  _193
REMARK   88  A    between atoms: _198  and  _200
REMARK   89  A    between atoms: _200  and  _201
REMARK   90  A    between atoms: _204  and  _206
REMARK   91  A    between atoms: _206  and  _207
REMARK   92  A    between atoms: _206  and  _209
REMARK   93  A    between atoms: _209  and  _210
REMARK   94  A    between atoms: _213  and  _215
REMARK   95  A    between atoms: _215  and  _216
REMARK   96  A    between atoms: _215  and  _218
REMARK   97  A    between atoms: _221  and  _223
REMARK   98  A    between atoms: _223  and  _224
REMARK   99  A    between atoms: _227  and  _228
REMARK  100  A    between atoms: _233  and  _235
REMARK  101  A    between atoms: _235  and  _236
REMARK  102  A    between atoms: _235  and  _238
REMARK  103  A    between atoms: _238  and  _239
REMARK  104  A    between atoms: _241  and  _243
REMARK  105  A    between atoms: _243  and  _244
REMARK  106  A    between atoms: _243  and  _246
REMARK  107  A    between atoms: _246  and  _247
REMARK  108  A    between atoms: _250  and  _252
REMARK  109  A    between atoms: _252  and  _253
REMARK  110  A    between atoms: _252  and  _255
REMARK  111  A    between atoms: _255  and  _256
REMARK  112  A    between atoms: _256  and  _257
REMARK  113  A    between atoms: _257  and  _258
REMARK  114  A    between atoms: _267  and  _269
REMARK  115  A    between atoms: _269  and  _270
REMARK  116  A    between atoms: _269  and  _272
REMARK  117  A    between atoms: _272  and  _273
REMARK  118  A    between atoms: _276  and  _278
REMARK  119  A    between atoms: _278  and  _279
REMARK  120  A    between atoms: _278  and  _281
REMARK  121  A    between atoms: _281  and  _282
REMARK  122  A    between atoms: _285  and  _286
REMARK  123  A    between atoms: _291  and  _293
REMARK  124  A    between atoms: _293  and  _294
REMARK  125  A    between atoms: _296  and  _298
REMARK  126  A    between atoms: _298  and  _299
REMARK  127  A    between atoms: _298  and  _301
REMARK  128  A    between atoms: _304  and  _306
REMARK  129  A    between atoms: _306  and  _307
REMARK  130  A    between atoms: _309  and  _311
REMARK  131  A    between atoms: _311  and  _312
REMARK  132  A    between atoms: _315  and  _317
REMARK  133  A    between atoms: _317  and  _318
REMARK  134  A    between atoms: _317  and  _320
REMARK  135  A    between atoms: _320  and  _321
REMARK  136  A    between atoms: _321  and  _322
REMARK  137  A    between atoms: _327  and  _329
REMARK  138  A    between atoms: _329  and  _330
REMARK  139  A    between atoms: _332  and  _334
REMARK  140  A    between atoms: _334  and  _335
REMARK  141  A    between atoms: _337  and  _339
REMARK  142  A    between atoms: _339  and  _340
REMARK  143  A    between atoms: _339  and  _342
REMARK  144  A    between atoms: _342  and  _343
REMARK  145  A    between atoms: _346  and  _348
REMARK  146  A    between atoms: _348  and  _349
REMARK  147  A    between atoms: _348  and  _351
REMARK  148  A    between atoms: _354  and  _356
REMARK  149  A    between atoms: _356  and  _357
REMARK  150  A    between atoms: _359  and  _361
REMARK  151  A    between atoms: _361  and  _362
REMARK  152  A    between atoms: _361  and  _364
REMARK  153  A    between atoms: _364  and  _365
REMARK  154  A    between atoms: _365  and  _366
REMARK  155  A    between atoms: _366  and  _367
REMARK  156  A    between atoms: _376  and  _378
REMARK  157  A    between atoms: _378  and  _379
REMARK  158  A    between atoms: _378  and  _381
REMARK  159  A    between atoms: _381  and  _382
REMARK  160  A    between atoms: _384  and  _386
REMARK  161  A    between atoms: _386  and  _387
REMARK  162  A    between atoms: _386  and  _389
REMARK  163  A    between atoms: _389  and  _390
REMARK  164  A    between atoms: _393  and  _395
REMARK  165  A    between atoms: _395  and  _396
REMARK  166  A    between atoms: _395  and  _398
REMARK  167  A    between atoms: _398  and  _399
REMARK  168  A    between atoms: _404  and  _405
REMARK  169  A    between atoms: _407  and  _409
REMARK  170  A    between atoms: _409  and  _410
REMARK  171  A    between atoms: _409  and  _412
REMARK  172  A    between atoms: _412  and  _413
REMARK  173  A    between atoms: _416  and  _418
REMARK  174  A    between atoms: _418  and  _419
REMARK  175  A    between atoms: _422  and  _424
REMARK  176  A    between atoms: _424  and  _425
REMARK  177  A    between atoms: _424  and  _427
REMARK  178  A    between atoms: _427  and  _428
REMARK  179  A    between atoms: _431  and  _433
REMARK  180  A    between atoms: _433  and  _434
REMARK  181  A    between atoms: _433  and  _436
REMARK  182  A    between atoms: _436  and  _437
REMARK  183  A    between atoms: _441  and  _442
REMARK  184  A    between atoms: _447  and  _449
REMARK  185  A    between atoms: _449  and  _450
REMARK  186  A    between atoms: _449  and  _452
REMARK  187  A    between atoms: _452  and  _453
REMARK  188  A    between atoms: _453  and  _454
REMARK  189  A    between atoms: _457  and  _459
REMARK  190  A    between atoms: _459  and  _460
REMARK  191  A    between atoms: _459  and  _462
REMARK  192  A    between atoms: _462  and  _463
REMARK  193  A    between atoms: _466  and  _468
REMARK  194  A    between atoms: _468  and  _469
REMARK  195  A    between atoms: _468  and  _471
REMARK  196  A    between atoms: _471  and  _472
REMARK  197  A    between atoms: _477  and  _479
REMARK  198  A    between atoms: _479  and  _480
REMARK  199  A    between atoms: _479  and  _482
REMARK  200  A    between atoms: _482  and  _483
REMARK  201  A    between atoms: _483  and  _484
REMARK  202  A    between atoms: _484  and  _485
REMARK  203  A    between atoms: _485  and  _486
REMARK  204  A    between atoms: _490  and  _492
REMARK  205  A    between atoms: _492  and  _493
REMARK  206  A    between atoms: _492  and  _495
REMARK  207  A    between atoms: _495  and  _496
REMARK                            x       y       z     vdW  Elec       q    Type
REMARK                         _______ _______ _______ _____ _____    ______ ____
ROOT
ATOM      1  CA  ALA A   3      25.683   2.490  13.156  0.00  0.00    +0.149 C 
ATOM      2  CB  ALA A   3      25.005   1.679  12.045  0.00  0.00    +0.031 C 
ENDROOT
BRANCH   1   5
ATOM      3  C   LEU A   2      27.189   4.422  13.121  0.00  0.00    +0.241 C 
ATOM      4  O   LEU A   2      26.588   5.000  14.036  0.00  0.00    -0.273 OA
ATOM      5  N   ALA A   3      26.814   3.244  12.621  0.00  0.00    -0.297 N 
ATOM      6  H   ALA A   3      27.346   2.847  11.821  0.00  0.00    +0.150 HD
BRANCH   3   7
ATOM      7  CA  LEU A   2      28.425   5.053  12.499  0.00  0.00    +0.149 C 
BRANCH   7   9
ATOM      8  C   ILE A   1      27.642   6.574  10.777  0.00  0.00    +0.238 C 
ATOM      9  N   LEU A   2      28.160   6.390  11.984  0.00  0.00    -0.297 N 
ATOM     10  H   LEU A   2      28.382   7.217  12.575  0.00  0.00    +0.150 HD
ATOM     11  O   ILE A   1      27.346   5.643  10.023  0.00  0.00    -0.274 OA
BRANCH   8  12
ATOM     12  CA  ILE A   1      27.418   8.024  10.368  0.00  0.00    +0.145 C 
BRANCH  12  13
ATOM     13  CB  ILE A   1      25.890   8.287  10.304  0.00  0.00    +0.025 C 
ATOM     14  CG2 ILE A   1      25.231   7.907  11.640  0.00  0.00    +0.002 C 
BRANCH  13  15
ATOM     15  CG1 ILE A   1      25.631   9.755   9.962  0.00  0.00    +0.002 C 
ATOM     16  CD1 ILE A   1      24.162  10.079   9.712  0.00  0.00    +0.000 C 
ENDBRANCH  13  15
ENDBRANCH  12  13
BRANCH  12  17
ATOM     17  N   ILE A   1      28.066   8.296   9.089  0.00  0.00    -0.238 NA
ATOM     18  H   ILE A   1      27.696   7.841   8.230  0.00  0.00    +0.142 HD
ENDBRANCH  12  17
ENDBRANCH   8  12
ENDBRANCH   7   9
BRANCH   7  19
ATOM     19  CB  LEU A   2      29.529   5.107  13.557  0.00  0.00    +0.029 C 
BRANCH  19  20
ATOM     20  CG  LEU A   2      29.752   3.788  14.311  0.00  0.00    +0.002 C 
ATOM     21  CD2 LEU A   2      30.722   4.025  15.459  0.00  0.00    +0.000 C 
ATOM     22  CD1 LEU A   2      30.298   2.729  13.373  0.00  0.00    +0.000 C 
ENDBRANCH  19  20
ENDBRANCH   7  19
ENDBRANCH   3   7
ENDBRANCH   1   5
BRANCH   1  23
ATOM     23  C   ALA A   3      26.286   1.560  14.217  0.00  0.00    +0.241 C 
ATOM     24  N   MET A   4      26.223   1.988  15.469  0.00  0.00    -0.297 N 
ATOM     25  H   MET A   4      25.759   2.895  15.676  0.00  0.00    +0.150 HD
ATOM     26  O   ALA A   3      26.808   0.484  13.917  0.00  0.00    -0.273 OA
BRANCH  24  27
ATOM     27  CA  MET A   4      26.793   1.209  16.561  0.00  0.00    +0.149 C 
BRANCH  27  28
ATOM     28  C   MET A   4      25.793   0.197  17.088  0.00  0.00    +0.241 C 
ATOM     29  O   MET A   4      25.032   0.474  18.013  0.00  0.00    -0.273 OA
ATOM     30  N   ASP A   5      25.803  -0.985  16.473  0.00  0.00    -0.298 N 
ATOM     31  H   ASP A   5      26.494  -1.153  15.714  0.00  0.00    +0.150 HD
BRANCH  30  32
ATOM     32  CA  ASP A   5      24.877  -2.047  16.831  0.00  0.00    +0.148 C 
BRANCH  32  33
ATOM     33  C   ASP A   5      25.500  -3.205  17.580  0.00  0.00    +0.227 C 
ATOM     34  O   ASP A   5      24.935  -4.300  17.618  0.00  0.00    -0.286 OA
ENDBRANCH  32  33
BRANCH  32  35
ATOM     35  CB  ASP A   5      24.170  -2.571  15.586  0.00  0.00    +0.142 C 
BRANCH  35  36
ATOM     36  CG  ASP A   5      23.315  -1.515  14.919  0.00  0.00    +0.367 C 
ATOM     37  OD2 ASP A   5      22.518  -0.859  15.628  0.00  0.00    -0.246 OA
ATOM     38  OD1 ASP A   5      23.432  -1.349  13.687  0.00  0.00    -0.246 OA
ENDBRANCH  35  36
ENDBRANCH  32  35
ENDBRANCH  30  32
ENDBRANCH  27  28
BRANCH  27  39
ATOM     39  CB  MET A   4      27.254   2.156  17.671  0.00  0.00    +0.041 C 
BRANCH  39  40
ATOM     40  CG  MET A   4      27.901   1.450  18.855  0.00  0.00    +0.060 C 
BRANCH  40  41
ATOM     41  SD  MET A   4      28.846  -0.030  18.364  0.00  0.00    -0.139 S 
ATOM     42  CE  MET A   4      30.201   0.697  17.469  0.00  0.00    +0.069 C 
ENDBRANCH  40  41
ENDBRANCH  39  40
ENDBRANCH  27  39
ENDBRANCH  24  27
ENDBRANCH   1  23
TORSDOF 19
REMARK  Name = ../refined-set-2016/3g1d/3g1d_pocket.pdb
REMARK  207 active torsions:
REMARK  status: ('A' for Active; 'I' for Inactive)
REMARK    1  A    between atoms: _1  and  _3
REMARK    2  A    between atoms: _3  and  _4
REMARK    3  A    between atoms: _3  and  _6
REMARK    4  A    between atoms: _6  and  _7
REMARK    5  A    between atoms: _10  and  _12
REMARK    6  A    between atoms: _12  and  _13
REMARK    7  A    between atoms: _12  and  _15
REMARK    8  A    between atoms: _15  and  _16
REMARK    9  A    between atoms: _19  and  _21
REMARK   10  A    between atoms: _21  and  _22
REMARK   11  A    between atoms: _25  and  _27
REMARK   12  A    between atoms: _27  and  _28
REMARK   13  A    between atoms: _27  and  _30
REMARK   14  A    between atoms: _30  and  _31
REMARK   15  A    between atoms: _31  and  _32
REMARK   16  A    between atoms: _34  and  _36
REMARK   17  A    between atoms: _36  and  _37
REMARK   18  A    between atoms: _36  and  _39
REMARK   19  A    between atoms: _39  and  _40
REMARK   20  A    between atoms: _43  and  _45
REMARK   21  A    between atoms: _45  and  _46
REMARK   22  A    between atoms: _45  and  _48
REMARK   23  A    between atoms: _48  and  _49
REMARK   24  A    between atoms: _49  and  _50
REMARK   25  A    between atoms: _50  and  _51
REMARK   26  A    between atoms: _51  and  _52
REMARK   27  A    between atoms: _56  and  _58
REMARK   28  A    between atoms: _58  and  _59
REMARK   29  A    between atoms: _58  and  _61
REMARK   30  A    between atoms: _61  and  _62
REMARK   31  A    between atoms: _65  and  _67
REMARK   32  A    between atoms: _67  and  _68
REMARK   33  A    between atoms: _70  and  _72
REMARK   34  A    between atoms: _72  and  _73
REMARK   35  A    between atoms: _72  and  _75
REMARK   36  A    between atoms: _75  and  _76
REMARK   37  A    between atoms: _81  and  _82
REMARK   38  A    between atoms: _85  and  _86
REMARK   39  A    between atoms: _91  and  _93
REMARK   40  A    between atoms: _93  and  _94
REMARK   41  A    between atoms: _93  and  _96
REMARK   42  A    between atoms: _96  and  _97
REMARK   43  A    between atoms: _100  and  _102
REMARK   44  A    between atoms: _102  and  _103
REMARK   45  A    between atoms: _102  and  _105
REMARK   46  A    between atoms: _105  and  _106
REMARK   47  A    between atoms: _109  and  _111
REMARK   48  A    between atoms: _111  and  _112
REMARK   49  A    between atoms: _111  and  _114
REMARK   50  A    between atoms: _114  and  _115
REMARK   51  A    between atoms: _115  and  _116
REMARK   52  A    between atoms: _116  and  _117
REMARK   53  A    between atoms: _117  and  _118
REMARK   54  A    between atoms: _122  and  _124
REMARK   55  A    between atoms: _124  and  _125
REMARK   56  A    between atoms: _124  and  _127
REMARK   57  A    between atoms: _127  and  _128
REMARK   58  A    between atoms: _131  and  _133
REMARK   59  A    between atoms: _133  and  _134
REMARK   60  A    between atoms: _133  and  _136
REMARK   61  A    between atoms: _136  and  _137
REMARK   62  A    between atoms: _142  and  _144
REMARK   63  A    between atoms: _144  and  _145
REMARK   64  A    between atoms: _144  and  _147
REMARK   65  A    between atoms: _147  and  _148
REMARK   66  A    between atoms: _151  and  _153
REMARK   67  A    between atoms: _153  and  _154
REMARK   68  A    between atoms: _153  and  _156
REMARK   69  A    between atoms: _156  and  _157
REMARK   70  A    between atoms: _160  and  _162
REMARK   71  A    between atoms: _162  and  _163
REMARK   72  A    between atoms: _162  and  _165
REMARK   73  A    between atoms: _165  and  _166
REMARK   74  A    between atoms: _166  and  _167
REMARK   75  A    between atoms: _170  and  _172
REMARK   76  A    between atoms: _172  and  _173
REMARK   77  A    between atoms: _172  and  _175
REMARK   78  A    between atoms: _175  and  _176
REMARK   79  A    between atoms: _176  and  _177
REMARK   80  A    between atoms: _179  and  _181
REMARK   81  A    between atoms: _181  and  _182
REMARK   82  A    between atoms: _181  and  _184
REMARK   83  A    between atoms: _184  and  _185
REMARK   84  A    between atoms: _187  and  _189
REMARK   85  A    between atoms: _189  and  _190
REMARK   86  A    between atoms: _189  and  _192
REMARK   87  A    between atoms: _192  and  _193
REMARK   88  A    between atoms: _198  and  _200
REMARK   89  A    between atoms: _200  and  _201
REMARK   90  A    between atoms: _204  and  _206
REMARK   91  A    between atoms: _206  and  _207
REMARK   92  A    between atoms: _206  and  _209
REMARK   93  A    between atoms: _209  and  _210
REMARK   94  A    between atoms: _213  and  _215
REMARK   95  A    between atoms: _215  and  _216
REMARK   96  A    between atoms: _215  and  _218
REMARK   97  A    between atoms: _221  and  _223
REMARK   98  A    between atoms: _223  and  _224
REMARK   99  A    between atoms: _227  and  _228
REMARK  100  A    between atoms: _233  and  _235
REMARK  101  A    between atoms: _235  and  _236
REMARK  102  A    between atoms: _235  and  _238
REMARK  103  A    between atoms: _238  and  _239
REMARK  104  A    between atoms: _241  and  _243
REMARK  105  A    between atoms: _243  and  _244
REMARK  106  A    between atoms: _243  and  _246
REMARK  107  A    between atoms: _246  and  _247
REMARK  108  A    between atoms: _250  and  _252
REMARK  109  A    between atoms: _252  and  _253
REMARK  110  A    between atoms: _252  and  _255
REMARK  111  A    between atoms: _255  and  _256
REMARK  112  A    between atoms: _256  and  _257
REMARK  113  A    between atoms: _257  and  _258
REMARK  114  A    between atoms: _267  and  _269
REMARK  115  A    between atoms: _269  and  _270
REMARK  116  A    between atoms: _269  and  _272
REMARK  117  A    between atoms: _272  and  _273
REMARK  118  A    between atoms: _276  and  _278
REMARK  119  A    between atoms: _278  and  _279
REMARK  120  A    between atoms: _278  and  _281
REMARK  121  A    between atoms: _281  and  _282
REMARK  122  A    between atoms: _285  and  _286
REMARK  123  A    between atoms: _291  and  _293
REMARK  124  A    between atoms: _293  and  _294
REMARK  125  A    between atoms: _296  and  _298
REMARK  126  A    between atoms: _298  and  _299
REMARK  127  A    between atoms: _298  and  _301
REMARK  128  A    between atoms: _304  and  _306
REMARK  129  A    between atoms: _306  and  _307
REMARK  130  A    between atoms: _309  and  _311
REMARK  131  A    between atoms: _311  and  _312
REMARK  132  A    between atoms: _315  and  _317
REMARK  133  A    between atoms: _317  and  _318
REMARK  134  A    between atoms: _317  and  _320
REMARK  135  A    between atoms: _320  and  _321
REMARK  136  A    between atoms: _321  and  _322
REMARK  137  A    between atoms: _327  and  _329
REMARK  138  A    between atoms: _329  and  _330
REMARK  139  A    between atoms: _332  and  _334
REMARK  140  A    between atoms: _334  and  _335
REMARK  141  A    between atoms: _337  and  _339
REMARK  142  A    between atoms: _339  and  _340
REMARK  143  A    between atoms: _339  and  _342
REMARK  144  A    between atoms: _342  and  _343
REMARK  145  A    between atoms: _346  and  _348
REMARK  146  A    between atoms: _348  and  _349
REMARK  147  A    between atoms: _348  and  _351
REMARK  148  A    between atoms: _354  and  _356
REMARK  149  A    between atoms: _356  and  _357
REMARK  150  A    between atoms: _359  and  _361
REMARK  151  A    between atoms: _361  and  _362
REMARK  152  A    between atoms: _361  and  _364
REMARK  153  A    between atoms: _364  and  _365
REMARK  154  A    between atoms: _365  and  _366
REMARK  155  A    between atoms: _366  and  _367
REMARK  156  A    between atoms: _376  and  _378
REMARK  157  A    between atoms: _378  and  _379
REMARK  158  A    between atoms: _378  and  _381
REMARK  159  A    between atoms: _381  and  _382
REMARK  160  A    between atoms: _384  and  _386
REMARK  161  A    between atoms: _386  and  _387
REMARK  162  A    between atoms: _386  and  _389
REMARK  163  A    between atoms: _389  and  _390
REMARK  164  A    between atoms: _393  and  _395
REMARK  165  A    between atoms: _395  and  _396
REMARK  166  A    between atoms: _395  and  _398
REMARK  167  A    between atoms: _398  and  _399
REMARK  168  A    between atoms: _404  and  _405
REMARK  169  A    between atoms: _407  and  _409
REMARK  170  A    between atoms: _409  and  _410
REMARK  171  A    between atoms: _409  and  _412
REMARK  172  A    between atoms: _412  and  _413
REMARK  173  A    between atoms: _416  and  _418
REMARK  174  A    between atoms: _418  and  _419
REMARK  175  A    between atoms: _422  and  _424
REMARK  176  A    between atoms: _424  and  _425
REMARK  177  A    between atoms: _424  and  _427
REMARK  178  A    between atoms: _427  and  _428
REMARK  179  A    between atoms: _431  and  _433
REMARK  180  A    between atoms: _433  and  _434
REMARK  181  A    between atoms: _433  and  _436
REMARK  182  A    between atoms: _436  and  _437
REMARK  183  A    between atoms: _441  and  _442
REMARK  184  A    between atoms: _447  and  _449
REMARK  185  A    between atoms: _449  and  _450
REMARK  186  A    between atoms: _449  and  _452
REMARK  187  A    between atoms: _452  and  _453
REMARK  188  A    between atoms: _453  and  _454
REMARK  189  A    between atoms: _457  and  _459
REMARK  190  A    between atoms: _459  and  _460
REMARK  191  A    between atoms: _459  and  _462
REMARK  192  A    between atoms: _462  and  _463
REMARK  193  A    between atoms: _466  and  _468
REMARK  194  A    between atoms: _468  and  _469
REMARK  195  A    between atoms: _468  and  _471
REMARK  196  A    between atoms: _471  and  _472
REMARK  197  A    between atoms: _477  and  _479
REMARK  198  A    between atoms: _479  and  _480
REMARK  199  A    between atoms: _479  and  _482
REMARK  200  A    between atoms: _482  and  _483
REMARK  201  A    between atoms: _483  and  _484
REMARK  202  A    between atoms: _484  and  _485
REMARK  203  A    between atoms: _485  and  _486
REMARK  204  A    between atoms: _490  and  _492
REMARK  205  A    between atoms: _492  and  _493
REMARK  206  A    between atoms: _492  and  _495
REMARK  207  A    between atoms: _495  and  _496
REMARK                            x       y       z     vdW  Elec       q    Type
REMARK                         _______ _______ _______ _____ _____    ______ ____
ROOT
ATOM      1  C   GLY A   3      19.189   0.544  19.132  0.00  0.00    +0.243 C 
ATOM      2  O   GLY A   3      19.840   0.548  20.174  0.00  0.00    -0.273 OA
ATOM      3  N   TYR A   4      18.135  -0.241  18.949  0.00  0.00    -0.297 N 
ATOM      4  H   TYR A   4      17.628  -0.216  18.042  0.00  0.00    +0.150 HD
ENDROOT
BRANCH   3   5
ATOM      5  CA  TYR A   4      17.681  -1.135  20.001  0.00  0.00    +0.153 C 
BRANCH   5   6
ATOM      6  C   TYR A   4      18.632  -2.276  20.370  0.00  0.00    +0.244 C 
ATOM      7  O   TYR A   4      18.620  -2.737  21.512  0.00  0.00    -0.273 OA
ATOM      8  N   PRO A   5      19.473  -2.743  19.430  0.00  0.00    -0.272 N 
ATOM      9  CA  PRO A   5      20.368  -3.831  19.845  0.00  0.00    +0.152 C 
ATOM     10  CB  PRO A   5      21.209  -4.081  18.600  0.00  0.00    +0.031 C 
ATOM     11  CG  PRO A   5      20.225  -3.815  17.489  0.00  0.00    +0.024 C 
ATOM     12  CD  PRO A   5      19.526  -2.543  17.967  0.00  0.00    +0.094 C 
BRANCH   9  13
ATOM     13  C   PRO A   5      21.216  -3.409  21.045  0.00  0.00    +0.241 C 
ATOM     14  O   PRO A   5      21.350  -4.157  22.010  0.00  0.00    -0.273 OA
ATOM     15  N   LEU A   6      21.773  -2.203  20.989  0.00  0.00    -0.298 N 
ATOM     16  H   LEU A   6      21.614  -1.604  20.154  0.00  0.00    +0.150 HD
BRANCH  15  17
ATOM     17  CA  LEU A   6      22.604  -1.707  22.081  0.00  0.00    +0.137 C 
BRANCH  17  18
ATOM     18  C   LEU A   6      21.788  -1.192  23.267  0.00  0.00    +0.227 C 
ATOM     19  O   LEU A   6      22.087  -1.511  24.416  0.00  0.00    -0.286 OA
ENDBRANCH  17  18
BRANCH  17  20
ATOM     20  CB  LEU A   6      23.544  -0.601  21.577  0.00  0.00    +0.028 C 
BRANCH  20  21
ATOM     21  CG  LEU A   6      24.491   0.014  22.610  0.00  0.00    +0.002 C 
ATOM     22  CD2 LEU A   6      25.315  -1.080  23.265  0.00  0.00    +0.000 C 
ATOM     23  CD1 LEU A   6      25.406   1.029  21.946  0.00  0.00    +0.000 C 
ENDBRANCH  20  21
ENDBRANCH  17  20
ENDBRANCH  15  17
ENDBRANCH   9  13
ENDBRANCH   5   6
BRANCH   5  24
ATOM     24  CB  TYR A   4      16.279  -1.661  19.664  0.00  0.00    +0.055 C 
BRANCH  24  25
ATOM     25  CG  TYR A   4      15.194  -0.628  19.917  0.00  0.00    -0.020 A 
ATOM     26  CD2 TYR A   4      15.149   0.081  21.121  0.00  0.00    -0.001 A 
ATOM     27  CE2 TYR A   4      14.150   1.032  21.370  0.00  0.00    +0.036 A 
ATOM     28  CZ  TYR A   4      13.181   1.278  20.410  0.00  0.00    +0.134 A 
ATOM     29  CE1 TYR A   4      13.204   0.589  19.207  0.00  0.00    +0.036 A 
ATOM     30  CD1 TYR A   4      14.211  -0.361  18.965  0.00  0.00    -0.001 A 
BRANCH  28  31
ATOM     31  OH  TYR A   4      12.190   2.201  20.675  0.00  0.00    -0.506 OA
ATOM     32  HH  TYR A   4      11.307   1.754  20.645  0.00  0.00    +0.292 HD
ENDBRANCH  28  31
ENDBRANCH  24  25
ENDBRANCH   5  24
ENDBRANCH   3   5
BRANCH   1  33
ATOM     33  CA  GLY A   3      19.564   1.445  17.975  0.00  0.00    +0.176 C 
BRANCH  33  35
ATOM     34  C   ILE A   2      20.960   3.409  18.108  0.00  0.00    +0.241 C 
ATOM     35  N   GLY A   3      20.857   2.082  18.138  0.00  0.00    -0.295 N 
ATOM     36  H   GLY A   3      21.707   1.500  18.279  0.00  0.00    +0.150 HD
ATOM     37  O   ILE A   2      20.001   4.148  17.935  0.00  0.00    -0.273 OA
BRANCH  34  38
ATOM     38  CA  ILE A   2      22.356   3.993  18.278  0.00  0.00    +0.148 C 
BRANCH  38  40
ATOM     39  C   LYS A   1      23.308   4.928  16.230  0.00  0.00    +0.238 C 
ATOM     40  N   ILE A   2      22.524   5.061  17.297  0.00  0.00    -0.297 N 
ATOM     41  H   ILE A   2      22.014   5.956  17.437  0.00  0.00    +0.150 HD
ATOM     42  O   LYS A   1      23.969   3.912  15.997  0.00  0.00    -0.274 OA
BRANCH  39  43
ATOM     43  CA  LYS A   1      23.379   6.123  15.296  0.00  0.00    +0.145 C 
BRANCH  43  44
ATOM     44  N   LYS A   1      24.752   6.614  15.312  0.00  0.00    -0.238 NA
ATOM     45  H   LYS A   1      25.480   6.100  14.776  0.00  0.00    +0.142 HD
ENDBRANCH  43  44
BRANCH  43  46
ATOM     46  CB  LYS A   1      22.961   5.686  13.888  0.00  0.00    +0.026 C 
BRANCH  46  47
ATOM     47  CG  LYS A   1      21.481   5.330  13.786  0.00  0.00    -0.000 C 
BRANCH  47  48
ATOM     48  CD  LYS A   1      21.121   4.888  12.375  0.00  0.00    -0.024 C 
BRANCH  48  49
ATOM     49  CE  LYS A   1      21.606   3.481  12.107  0.00  0.00    -0.086 C 
BRANCH  49  50
ATOM     50  NZ  LYS A   1      20.845   2.485  12.919  0.00  0.00    +0.380 N 
ATOM     51  HZ1 LYS A   1      20.972   2.694  13.930  0.00  0.00    -0.089 HD
ATOM     52  HZ2 LYS A   1      21.200   1.529  12.714  0.00  0.00    -0.089 HD
ATOM     53  HZ3 LYS A   1      19.835   2.541  12.676  0.00  0.00    -0.089 HD
ENDBRANCH  49  50
ENDBRANCH  48  49
ENDBRANCH  47  48
ENDBRANCH  46  47
ENDBRANCH  43  46
ENDBRANCH  39  43
ENDBRANCH  38  40
BRANCH  38  54
ATOM     54  CB  ILE A   2      22.551   4.539  19.718  0.00  0.00    +0.027 C 
ATOM     55  CG2 ILE A   2      22.068   3.526  20.760  0.00  0.00    +0.002 C 
BRANCH  54  56
ATOM     56  CG1 ILE A   2      24.032   4.869  19.922  0.00  0.00    +0.002 C 
ATOM     57  CD1 ILE A   2      24.377   5.400  21.304  0.00  0.00    +0.000 C 
ENDBRANCH  54  56
ENDBRANCH  38  54
ENDBRANCH  34  38
ENDBRANCH  33  35
ENDBRANCH   1  33
TORSDOF 23
REMARK  Name = ../refined-set-2016/3g1d/3g1d_pocket.pdb
REMARK  207 active torsions:
REMARK  status: ('A' for Active; 'I' for Inactive)
REMARK    1  A    between atoms: _1  and  _3
REMARK    2  A    between atoms: _3  and  _4
REMARK    3  A    between atoms: _3  and  _6
REMARK    4  A    between atoms: _6  and  _7
REMARK    5  A    between atoms: _10  and  _12
REMARK    6  A    between atoms: _12  and  _13
REMARK    7  A    between atoms: _12  and  _15
REMARK    8  A    between atoms: _15  and  _16
REMARK    9  A    between atoms: _19  and  _21
REMARK   10  A    between atoms: _21  and  _22
REMARK   11  A    between atoms: _25  and  _27
REMARK   12  A    between atoms: _27  and  _28
REMARK   13  A    between atoms: _27  and  _30
REMARK   14  A    between atoms: _30  and  _31
REMARK   15  A    between atoms: _31  and  _32
REMARK   16  A    between atoms: _34  and  _36
REMARK   17  A    between atoms: _36  and  _37
REMARK   18  A    between atoms: _36  and  _39
REMARK   19  A    between atoms: _39  and  _40
REMARK   20  A    between atoms: _43  and  _45
REMARK   21  A    between atoms: _45  and  _46
REMARK   22  A    between atoms: _45  and  _48
REMARK   23  A    between atoms: _48  and  _49
REMARK   24  A    between atoms: _49  and  _50
REMARK   25  A    between atoms: _50  and  _51
REMARK   26  A    between atoms: _51  and  _52
REMARK   27  A    between atoms: _56  and  _58
REMARK   28  A    between atoms: _58  and  _59
REMARK   29  A    between atoms: _58  and  _61
REMARK   30  A    between atoms: _61  and  _62
REMARK   31  A    between atoms: _65  and  _67
REMARK   32  A    between atoms: _67  and  _68
REMARK   33  A    between atoms: _70  and  _72
REMARK   34  A    between atoms: _72  and  _73
REMARK   35  A    between atoms: _72  and  _75
REMARK   36  A    between atoms: _75  and  _76
REMARK   37  A    between atoms: _81  and  _82
REMARK   38  A    between atoms: _85  and  _86
REMARK   39  A    between atoms: _91  and  _93
REMARK   40  A    between atoms: _93  and  _94
REMARK   41  A    between atoms: _93  and  _96
REMARK   42  A    between atoms: _96  and  _97
REMARK   43  A    between atoms: _100  and  _102
REMARK   44  A    between atoms: _102  and  _103
REMARK   45  A    between atoms: _102  and  _105
REMARK   46  A    between atoms: _105  and  _106
REMARK   47  A    between atoms: _109  and  _111
REMARK   48  A    between atoms: _111  and  _112
REMARK   49  A    between atoms: _111  and  _114
REMARK   50  A    between atoms: _114  and  _115
REMARK   51  A    between atoms: _115  and  _116
REMARK   52  A    between atoms: _116  and  _117
REMARK   53  A    between atoms: _117  and  _118
REMARK   54  A    between atoms: _122  and  _124
REMARK   55  A    between atoms: _124  and  _125
REMARK   56  A    between atoms: _124  and  _127
REMARK   57  A    between atoms: _127  and  _128
REMARK   58  A    between atoms: _131  and  _133
REMARK   59  A    between atoms: _133  and  _134
REMARK   60  A    between atoms: _133  and  _136
REMARK   61  A    between atoms: _136  and  _137
REMARK   62  A    between atoms: _142  and  _144
REMARK   63  A    between atoms: _144  and  _145
REMARK   64  A    between atoms: _144  and  _147
REMARK   65  A    between atoms: _147  and  _148
REMARK   66  A    between atoms: _151  and  _153
REMARK   67  A    between atoms: _153  and  _154
REMARK   68  A    between atoms: _153  and  _156
REMARK   69  A    between atoms: _156  and  _157
REMARK   70  A    between atoms: _160  and  _162
REMARK   71  A    between atoms: _162  and  _163
REMARK   72  A    between atoms: _162  and  _165
REMARK   73  A    between atoms: _165  and  _166
REMARK   74  A    between atoms: _166  and  _167
REMARK   75  A    between atoms: _170  and  _172
REMARK   76  A    between atoms: _172  and  _173
REMARK   77  A    between atoms: _172  and  _175
REMARK   78  A    between atoms: _175  and  _176
REMARK   79  A    between atoms: _176  and  _177
REMARK   80  A    between atoms: _179  and  _181
REMARK   81  A    between atoms: _181  and  _182
REMARK   82  A    between atoms: _181  and  _184
REMARK   83  A    between atoms: _184  and  _185
REMARK   84  A    between atoms: _187  and  _189
REMARK   85  A    between atoms: _189  and  _190
REMARK   86  A    between atoms: _189  and  _192
REMARK   87  A    between atoms: _192  and  _193
REMARK   88  A    between atoms: _198  and  _200
REMARK   89  A    between atoms: _200  and  _201
REMARK   90  A    between atoms: _204  and  _206
REMARK   91  A    between atoms: _206  and  _207
REMARK   92  A    between atoms: _206  and  _209
REMARK   93  A    between atoms: _209  and  _210
REMARK   94  A    between atoms: _213  and  _215
REMARK   95  A    between atoms: _215  and  _216
REMARK   96  A    between atoms: _215  and  _218
REMARK   97  A    between atoms: _221  and  _223
REMARK   98  A    between atoms: _223  and  _224
REMARK   99  A    between atoms: _227  and  _228
REMARK  100  A    between atoms: _233  and  _235
REMARK  101  A    between atoms: _235  and  _236
REMARK  102  A    between atoms: _235  and  _238
REMARK  103  A    between atoms: _238  and  _239
REMARK  104  A    between atoms: _241  and  _243
REMARK  105  A    between atoms: _243  and  _244
REMARK  106  A    between atoms: _243  and  _246
REMARK  107  A    between atoms: _246  and  _247
REMARK  108  A    between atoms: _250  and  _252
REMARK  109  A    between atoms: _252  and  _253
REMARK  110  A    between atoms: _252  and  _255
REMARK  111  A    between atoms: _255  and  _256
REMARK  112  A    between atoms: _256  and  _257
REMARK  113  A    between atoms: _257  and  _258
REMARK  114  A    between atoms: _267  and  _269
REMARK  115  A    between atoms: _269  and  _270
REMARK  116  A    between atoms: _269  and  _272
REMARK  117  A    between atoms: _272  and  _273
REMARK  118  A    between atoms: _276  and  _278
REMARK  119  A    between atoms: _278  and  _279
REMARK  120  A    between atoms: _278  and  _281
REMARK  121  A    between atoms: _281  and  _282
REMARK  122  A    between atoms: _285  and  _286
REMARK  123  A    between atoms: _291  and  _293
REMARK  124  A    between atoms: _293  and  _294
REMARK  125  A    between atoms: _296  and  _298
REMARK  126  A    between atoms: _298  and  _299
REMARK  127  A    between atoms: _298  and  _301
REMARK  128  A    between atoms: _304  and  _306
REMARK  129  A    between atoms: _306  and  _307
REMARK  130  A    between atoms: _309  and  _311
REMARK  131  A    between atoms: _311  and  _312
REMARK  132  A    between atoms: _315  and  _317
REMARK  133  A    between atoms: _317  and  _318
REMARK  134  A    between atoms: _317  and  _320
REMARK  135  A    between atoms: _320  and  _321
REMARK  136  A    between atoms: _321  and  _322
REMARK  137  A    between atoms: _327  and  _329
REMARK  138  A    between atoms: _329  and  _330
REMARK  139  A    between atoms: _332  and  _334
REMARK  140  A    between atoms: _334  and  _335
REMARK  141  A    between atoms: _337  and  _339
REMARK  142  A    between atoms: _339  and  _340
REMARK  143  A    between atoms: _339  and  _342
REMARK  144  A    between atoms: _342  and  _343
REMARK  145  A    between atoms: _346  and  _348
REMARK  146  A    between atoms: _348  and  _349
REMARK  147  A    between atoms: _348  and  _351
REMARK  148  A    between atoms: _354  and  _356
REMARK  149  A    between atoms: _356  and  _357
REMARK  150  A    between atoms: _359  and  _361
REMARK  151  A    between atoms: _361  and  _362
REMARK  152  A    between atoms: _361  and  _364
REMARK  153  A    between atoms: _364  and  _365
REMARK  154  A    between atoms: _365  and  _366
REMARK  155  A    between atoms: _366  and  _367
REMARK  156  A    between atoms: _376  and  _378
REMARK  157  A    between atoms: _378  and  _379
REMARK  158  A    between atoms: _378  and  _381
REMARK  159  A    between atoms: _381  and  _382
REMARK  160  A    between atoms: _384  and  _386
REMARK  161  A    between atoms: _386  and  _387
REMARK  162  A    between atoms: _386  and  _389
REMARK  163  A    between atoms: _389  and  _390
REMARK  164  A    between atoms: _393  and  _395
REMARK  165  A    between atoms: _395  and  _396
REMARK  166  A    between atoms: _395  and  _398
REMARK  167  A    between atoms: _398  and  _399
REMARK  168  A    between atoms: _404  and  _405
REMARK  169  A    between atoms: _407  and  _409
REMARK  170  A    between atoms: _409  and  _410
REMARK  171  A    between atoms: _409  and  _412
REMARK  172  A    between atoms: _412  and  _413
REMARK  173  A    between atoms: _416  and  _418
REMARK  174  A    between atoms: _418  and  _419
REMARK  175  A    between atoms: _422  and  _424
REMARK  176  A    between atoms: _424  and  _425
REMARK  177  A    between atoms: _424  and  _427
REMARK  178  A    between atoms: _427  and  _428
REMARK  179  A    between atoms: _431  and  _433
REMARK  180  A    between atoms: _433  and  _434
REMARK  181  A    between atoms: _433  and  _436
REMARK  182  A    between atoms: _436  and  _437
REMARK  183  A    between atoms: _441  and  _442
REMARK  184  A    between atoms: _447  and  _449
REMARK  185  A    between atoms: _449  and  _450
REMARK  186  A    between atoms: _449  and  _452
REMARK  187  A    between atoms: _452  and  _453
REMARK  188  A    between atoms: _453  and  _454
REMARK  189  A    between atoms: _457  and  _459
REMARK  190  A    between atoms: _459  and  _460
REMARK  191  A    between atoms: _459  and  _462
REMARK  192  A    between atoms: _462  and  _463
REMARK  193  A    between atoms: _466  and  _468
REMARK  194  A    between atoms: _468  and  _469
REMARK  195  A    between atoms: _468  and  _471
REMARK  196  A    between atoms: _471  and  _472
REMARK  197  A    between atoms: _477  and  _479
REMARK  198  A    between atoms: _479  and  _480
REMARK  199  A    between atoms: _479  and  _482
REMARK  200  A    between atoms: _482  and  _483
REMARK  201  A    between atoms: _483  and  _484
REMARK  202  A    between atoms: _484  and  _485
REMARK  203  A    between atoms: _485  and  _486
REMARK  204  A    between atoms: _490  and  _492
REMARK  205  A    between atoms: _492  and  _493
REMARK  206  A    between atoms: _492  and  _495
REMARK  207  A    between atoms: _495  and  _496
REMARK                            x       y       z     vdW  Elec       q    Type
REMARK                         _______ _______ _______ _____ _____    ______ ____
ROOT
ATOM      1  CA  ASP A   1      17.211   4.602  15.255  0.00  0.00    +0.144 C 
ENDROOT
BRANCH   1   2
ATOM      2  N   ASP A   1      17.919   5.300  16.317  0.00  0.00    -0.239 NA
ATOM      3  H   ASP A   1      18.826   4.923  16.658  0.00  0.00    +0.142 HD
ENDBRANCH   1   2
BRANCH   1   4
ATOM      4  C   ASP A   1      16.211   3.631  15.871  0.00  0.00    +0.225 C 
ATOM      5  O   ASP A   1      16.434   2.420  15.885  0.00  0.00    -0.287 OA
ENDBRANCH   1   4
BRANCH   1   6
ATOM      6  CB  ASP A   1      18.204   3.852  14.369  0.00  0.00    +0.139 C 
BRANCH   6   7
ATOM      7  CG  ASP A   1      17.555   3.290  13.132  0.00  0.00    +0.367 C 
ATOM      8  OD2 ASP A   1      16.325   3.468  12.992  0.00  0.00    -0.246 OA
ATOM      9  OD1 ASP A   1      18.271   2.682  12.310  0.00  0.00    -0.246 OA
ENDBRANCH   6   7
ENDBRANCH   1   6
TORSDOF 4
REMARK  Name = ../refined-set-2016/3g1d/3g1d_pocket.pdb
REMARK  207 active torsions:
REMARK  status: ('A' for Active; 'I' for Inactive)
REMARK    1  A    between atoms: _1  and  _3
REMARK    2  A    between atoms: _3  and  _4
REMARK    3  A    between atoms: _3  and  _6
REMARK    4  A    between atoms: _6  and  _7
REMARK    5  A    between atoms: _10  and  _12
REMARK    6  A    between atoms: _12  and  _13
REMARK    7  A    between atoms: _12  and  _15
REMARK    8  A    between atoms: _15  and  _16
REMARK    9  A    between atoms: _19  and  _21
REMARK   10  A    between atoms: _21  and  _22
REMARK   11  A    between atoms: _25  and  _27
REMARK   12  A    between atoms: _27  and  _28
REMARK   13  A    between atoms: _27  and  _30
REMARK   14  A    between atoms: _30  and  _31
REMARK   15  A    between atoms: _31  and  _32
REMARK   16  A    between atoms: _34  and  _36
REMARK   17  A    between atoms: _36  and  _37
REMARK   18  A    between atoms: _36  and  _39
REMARK   19  A    between atoms: _39  and  _40
REMARK   20  A    between atoms: _43  and  _45
REMARK   21  A    between atoms: _45  and  _46
REMARK   22  A    between atoms: _45  and  _48
REMARK   23  A    between atoms: _48  and  _49
REMARK   24  A    between atoms: _49  and  _50
REMARK   25  A    between atoms: _50  and  _51
REMARK   26  A    between atoms: _51  and  _52
REMARK   27  A    between atoms: _56  and  _58
REMARK   28  A    between atoms: _58  and  _59
REMARK   29  A    between atoms: _58  and  _61
REMARK   30  A    between atoms: _61  and  _62
REMARK   31  A    between atoms: _65  and  _67
REMARK   32  A    between atoms: _67  and  _68
REMARK   33  A    between atoms: _70  and  _72
REMARK   34  A    between atoms: _72  and  _73
REMARK   35  A    between atoms: _72  and  _75
REMARK   36  A    between atoms: _75  and  _76
REMARK   37  A    between atoms: _81  and  _82
REMARK   38  A    between atoms: _85  and  _86
REMARK   39  A    between atoms: _91  and  _93
REMARK   40  A    between atoms: _93  and  _94
REMARK   41  A    between atoms: _93  and  _96
REMARK   42  A    between atoms: _96  and  _97
REMARK   43  A    between atoms: _100  and  _102
REMARK   44  A    between atoms: _102  and  _103
REMARK   45  A    between atoms: _102  and  _105
REMARK   46  A    between atoms: _105  and  _106
REMARK   47  A    between atoms: _109  and  _111
REMARK   48  A    between atoms: _111  and  _112
REMARK   49  A    between atoms: _111  and  _114
REMARK   50  A    between atoms: _114  and  _115
REMARK   51  A    between atoms: _115  and  _116
REMARK   52  A    between atoms: _116  and  _117
REMARK   53  A    between atoms: _117  and  _118
REMARK   54  A    between atoms: _122  and  _124
REMARK   55  A    between atoms: _124  and  _125
REMARK   56  A    between atoms: _124  and  _127
REMARK   57  A    between atoms: _127  and  _128
REMARK   58  A    between atoms: _131  and  _133
REMARK   59  A    between atoms: _133  and  _134
REMARK   60  A    between atoms: _133  and  _136
REMARK   61  A    between atoms: _136  and  _137
REMARK   62  A    between atoms: _142  and  _144
REMARK   63  A    between atoms: _144  and  _145
REMARK   64  A    between atoms: _144  and  _147
REMARK   65  A    between atoms: _147  and  _148
REMARK   66  A    between atoms: _151  and  _153
REMARK   67  A    between atoms: _153  and  _154
REMARK   68  A    between atoms: _153  and  _156
REMARK   69  A    between atoms: _156  and  _157
REMARK   70  A    between atoms: _160  and  _162
REMARK   71  A    between atoms: _162  and  _163
REMARK   72  A    between atoms: _162  and  _165
REMARK   73  A    between atoms: _165  and  _166
REMARK   74  A    between atoms: _166  and  _167
REMARK   75  A    between atoms: _170  and  _172
REMARK   76  A    between atoms: _172  and  _173
REMARK   77  A    between atoms: _172  and  _175
REMARK   78  A    between atoms: _175  and  _176
REMARK   79  A    between atoms: _176  and  _177
REMARK   80  A    between atoms: _179  and  _181
REMARK   81  A    between atoms: _181  and  _182
REMARK   82  A    between atoms: _181  and  _184
REMARK   83  A    between atoms: _184  and  _185
REMARK   84  A    between atoms: _187  and  _189
REMARK   85  A    between atoms: _189  and  _190
REMARK   86  A    between atoms: _189  and  _192
REMARK   87  A    between atoms: _192  and  _193
REMARK   88  A    between atoms: _198  and  _200
REMARK   89  A    between atoms: _200  and  _201
REMARK   90  A    between atoms: _204  and  _206
REMARK   91  A    between atoms: _206  and  _207
REMARK   92  A    between atoms: _206  and  _209
REMARK   93  A    between atoms: _209  and  _210
REMARK   94  A    between atoms: _213  and  _215
REMARK   95  A    between atoms: _215  and  _216
REMARK   96  A    between atoms: _215  and  _218
REMARK   97  A    between atoms: _221  and  _223
REMARK   98  A    between atoms: _223  and  _224
REMARK   99  A    between atoms: _227  and  _228
REMARK  100  A    between atoms: _233  and  _235
REMARK  101  A    between atoms: _235  and  _236
REMARK  102  A    between atoms: _235  and  _238
REMARK  103  A    between atoms: _238  and  _239
REMARK  104  A    between atoms: _241  and  _243
REMARK  105  A    between atoms: _243  and  _244
REMARK  106  A    between atoms: _243  and  _246
REMARK  107  A    between atoms: _246  and  _247
REMARK  108  A    between atoms: _250  and  _252
REMARK  109  A    between atoms: _252  and  _253
REMARK  110  A    between atoms: _252  and  _255
REMARK  111  A    between atoms: _255  and  _256
REMARK  112  A    between atoms: _256  and  _257
REMARK  113  A    between atoms: _257  and  _258
REMARK  114  A    between atoms: _267  and  _269
REMARK  115  A    between atoms: _269  and  _270
REMARK  116  A    between atoms: _269  and  _272
REMARK  117  A    between atoms: _272  and  _273
REMARK  118  A    between atoms: _276  and  _278
REMARK  119  A    between atoms: _278  and  _279
REMARK  120  A    between atoms: _278  and  _281
REMARK  121  A    between atoms: _281  and  _282
REMARK  122  A    between atoms: _285  and  _286
REMARK  123  A    between atoms: _291  and  _293
REMARK  124  A    between atoms: _293  and  _294
REMARK  125  A    between atoms: _296  and  _298
REMARK  126  A    between atoms: _298  and  _299
REMARK  127  A    between atoms: _298  and  _301
REMARK  128  A    between atoms: _304  and  _306
REMARK  129  A    between atoms: _306  and  _307
REMARK  130  A    between atoms: _309  and  _311
REMARK  131  A    between atoms: _311  and  _312
REMARK  132  A    between atoms: _315  and  _317
REMARK  133  A    between atoms: _317  and  _318
REMARK  134  A    between atoms: _317  and  _320
REMARK  135  A    between atoms: _320  and  _321
REMARK  136  A    between atoms: _321  and  _322
REMARK  137  A    between atoms: _327  and  _329
REMARK  138  A    between atoms: _329  and  _330
REMARK  139  A    between atoms: _332  and  _334
REMARK  140  A    between atoms: _334  and  _335
REMARK  141  A    between atoms: _337  and  _339
REMARK  142  A    between atoms: _339  and  _340
REMARK  143  A    between atoms: _339  and  _342
REMARK  144  A    between atoms: _342  and  _343
REMARK  145  A    between atoms: _346  and  _348
REMARK  146  A    between atoms: _348  and  _349
REMARK  147  A    between atoms: _348  and  _351
REMARK  148  A    between atoms: _354  and  _356
REMARK  149  A    between atoms: _356  and  _357
REMARK  150  A    between atoms: _359  and  _361
REMARK  151  A    between atoms: _361  and  _362
REMARK  152  A    between atoms: _361  and  _364
REMARK  153  A    between atoms: _364  and  _365
REMARK  154  A    between atoms: _365  and  _366
REMARK  155  A    between atoms: _366  and  _367
REMARK  156  A    between atoms: _376  and  _378
REMARK  157  A    between atoms: _378  and  _379
REMARK  158  A    between atoms: _378  and  _381
REMARK  159  A    between atoms: _381  and  _382
REMARK  160  A    between atoms: _384  and  _386
REMARK  161  A    between atoms: _386  and  _387
REMARK  162  A    between atoms: _386  and  _389
REMARK  163  A    between atoms: _389  and  _390
REMARK  164  A    between atoms: _393  and  _395
REMARK  165  A    between atoms: _395  and  _396
REMARK  166  A    between atoms: _395  and  _398
REMARK  167  A    between atoms: _398  and  _399
REMARK  168  A    between atoms: _404  and  _405
REMARK  169  A    between atoms: _407  and  _409
REMARK  170  A    between atoms: _409  and  _410
REMARK  171  A    between atoms: _409  and  _412
REMARK  172  A    between atoms: _412  and  _413
REMARK  173  A    between atoms: _416  and  _418
REMARK  174  A    between atoms: _418  and  _419
REMARK  175  A    between atoms: _422  and  _424
REMARK  176  A    between atoms: _424  and  _425
REMARK  177  A    between atoms: _424  and  _427
REMARK  178  A    between atoms: _427  and  _428
REMARK  179  A    between atoms: _431  and  _433
REMARK  180  A    between atoms: _433  and  _434
REMARK  181  A    between atoms: _433  and  _436
REMARK  182  A    between atoms: _436  and  _437
REMARK  183  A    between atoms: _441  and  _442
REMARK  184  A    between atoms: _447  and  _449
REMARK  185  A    between atoms: _449  and  _450
REMARK  186  A    between atoms: _449  and  _452
REMARK  187  A    between atoms: _452  and  _453
REMARK  188  A    between atoms: _453  and  _454
REMARK  189  A    between atoms: _457  and  _459
REMARK  190  A    between atoms: _459  and  _460
REMARK  191  A    between atoms: _459  and  _462
REMARK  192  A    between atoms: _462  and  _463
REMARK  193  A    between atoms: _466  and  _468
REMARK  194  A    between atoms: _468  and  _469
REMARK  195  A    between atoms: _468  and  _471
REMARK  196  A    between atoms: _471  and  _472
REMARK  197  A    between atoms: _477  and  _479
REMARK  198  A    between atoms: _479  and  _480
REMARK  199  A    between atoms: _479  and  _482
REMARK  200  A    between atoms: _482  and  _483
REMARK  201  A    between atoms: _483  and  _484
REMARK  202  A    between atoms: _484  and  _485
REMARK  203  A    between atoms: _485  and  _486
REMARK  204  A    between atoms: _490  and  _492
REMARK  205  A    between atoms: _492  and  _493
REMARK  206  A    between atoms: _492  and  _495
REMARK  207  A    between atoms: _495  and  _496
REMARK                            x       y       z     vdW  Elec       q    Type
REMARK                         _______ _______ _______ _____ _____    ______ ____
ROOT
ATOM      1  CG  LYS A   1      13.569   1.951  12.455  0.00  0.00    -0.000 C 
ENDROOT
BRANCH   1   2
ATOM      2  CB  LYS A   1      12.215   1.947  13.123  0.00  0.00    +0.025 C 
BRANCH   2   3
ATOM      3  CA  LYS A   1      11.921   3.260  13.849  0.00  0.00    +0.133 C 
BRANCH   3   4
ATOM      4  N   LYS A   1      12.960   3.520  14.854  0.00  0.00    -0.239 NA
ATOM      5  H   LYS A   1      13.757   4.139  14.601  0.00  0.00    +0.142 HD
ENDBRANCH   3   4
BRANCH   3   6
ATOM      6  C   LYS A   1      10.554   3.198  14.509  0.00  0.00    +0.224 C 
ATOM      7  O   LYS A   1       9.816   2.208  14.391  0.00  0.00    -0.287 OA
ENDBRANCH   3   6
ENDBRANCH   2   3
ENDBRANCH   1   2
BRANCH   1   8
ATOM      8  CD  LYS A   1      13.892   0.632  11.797  0.00  0.00    -0.024 C 
BRANCH   8   9
ATOM      9  CE  LYS A   1      15.352   0.615  11.420  0.00  0.00    -0.086 C 
BRANCH   9  10
ATOM     10  NZ  LYS A   1      16.206   0.776  12.626  0.00  0.00    +0.380 N 
ATOM     11  HZ1 LYS A   1      16.019  -0.004  13.288  0.00  0.00    -0.089 HD
ATOM     12  HZ2 LYS A   1      15.987   1.683  13.086  0.00  0.00    -0.089 HD
ATOM     13  HZ3 LYS A   1      17.207   0.762  12.345  0.00  0.00    -0.089 HD
ENDBRANCH   9  10
ENDBRANCH   8   9
ENDBRANCH   1   8
TORSDOF 7
REMARK  Name = ../refined-set-2016/3g1d/3g1d_pocket.pdb
REMARK  207 active torsions:
REMARK  status: ('A' for Active; 'I' for Inactive)
REMARK    1  A    between atoms: _1  and  _3
REMARK    2  A    between atoms: _3  and  _4
REMARK    3  A    between atoms: _3  and  _6
REMARK    4  A    between atoms: _6  and  _7
REMARK    5  A    between atoms: _10  and  _12
REMARK    6  A    between atoms: _12  and  _13
REMARK    7  A    between atoms: _12  and  _15
REMARK    8  A    between atoms: _15  and  _16
REMARK    9  A    between atoms: _19  and  _21
REMARK   10  A    between atoms: _21  and  _22
REMARK   11  A    between atoms: _25  and  _27
REMARK   12  A    between atoms: _27  and  _28
REMARK   13  A    between atoms: _27  and  _30
REMARK   14  A    between atoms: _30  and  _31
REMARK   15  A    between atoms: _31  and  _32
REMARK   16  A    between atoms: _34  and  _36
REMARK   17  A    between atoms: _36  and  _37
REMARK   18  A    between atoms: _36  and  _39
REMARK   19  A    between atoms: _39  and  _40
REMARK   20  A    between atoms: _43  and  _45
REMARK   21  A    between atoms: _45  and  _46
REMARK   22  A    between atoms: _45  and  _48
REMARK   23  A    between atoms: _48  and  _49
REMARK   24  A    between atoms: _49  and  _50
REMARK   25  A    between atoms: _50  and  _51
REMARK   26  A    between atoms: _51  and  _52
REMARK   27  A    between atoms: _56  and  _58
REMARK   28  A    between atoms: _58  and  _59
REMARK   29  A    between atoms: _58  and  _61
REMARK   30  A    between atoms: _61  and  _62
REMARK   31  A    between atoms: _65  and  _67
REMARK   32  A    between atoms: _67  and  _68
REMARK   33  A    between atoms: _70  and  _72
REMARK   34  A    between atoms: _72  and  _73
REMARK   35  A    between atoms: _72  and  _75
REMARK   36  A    between atoms: _75  and  _76
REMARK   37  A    between atoms: _81  and  _82
REMARK   38  A    between atoms: _85  and  _86
REMARK   39  A    between atoms: _91  and  _93
REMARK   40  A    between atoms: _93  and  _94
REMARK   41  A    between atoms: _93  and  _96
REMARK   42  A    between atoms: _96  and  _97
REMARK   43  A    between atoms: _100  and  _102
REMARK   44  A    between atoms: _102  and  _103
REMARK   45  A    between atoms: _102  and  _105
REMARK   46  A    between atoms: _105  and  _106
REMARK   47  A    between atoms: _109  and  _111
REMARK   48  A    between atoms: _111  and  _112
REMARK   49  A    between atoms: _111  and  _114
REMARK   50  A    between atoms: _114  and  _115
REMARK   51  A    between atoms: _115  and  _116
REMARK   52  A    between atoms: _116  and  _117
REMARK   53  A    between atoms: _117  and  _118
REMARK   54  A    between atoms: _122  and  _124
REMARK   55  A    between atoms: _124  and  _125
REMARK   56  A    between atoms: _124  and  _127
REMARK   57  A    between atoms: _127  and  _128
REMARK   58  A    between atoms: _131  and  _133
REMARK   59  A    between atoms: _133  and  _134
REMARK   60  A    between atoms: _133  and  _136
REMARK   61  A    between atoms: _136  and  _137
REMARK   62  A    between atoms: _142  and  _144
REMARK   63  A    between atoms: _144  and  _145
REMARK   64  A    between atoms: _144  and  _147
REMARK   65  A    between atoms: _147  and  _148
REMARK   66  A    between atoms: _151  and  _153
REMARK   67  A    between atoms: _153  and  _154
REMARK   68  A    between atoms: _153  and  _156
REMARK   69  A    between atoms: _156  and  _157
REMARK   70  A    between atoms: _160  and  _162
REMARK   71  A    between atoms: _162  and  _163
REMARK   72  A    between atoms: _162  and  _165
REMARK   73  A    between atoms: _165  and  _166
REMARK   74  A    between atoms: _166  and  _167
REMARK   75  A    between atoms: _170  and  _172
REMARK   76  A    between atoms: _172  and  _173
REMARK   77  A    between atoms: _172  and  _175
REMARK   78  A    between atoms: _175  and  _176
REMARK   79  A    between atoms: _176  and  _177
REMARK   80  A    between atoms: _179  and  _181
REMARK   81  A    between atoms: _181  and  _182
REMARK   82  A    between atoms: _181  and  _184
REMARK   83  A    between atoms: _184  and  _185
REMARK   84  A    between atoms: _187  and  _189
REMARK   85  A    between atoms: _189  and  _190
REMARK   86  A    between atoms: _189  and  _192
REMARK   87  A    between atoms: _192  and  _193
REMARK   88  A    between atoms: _198  and  _200
REMARK   89  A    between atoms: _200  and  _201
REMARK   90  A    between atoms: _204  and  _206
REMARK   91  A    between atoms: _206  and  _207
REMARK   92  A    between atoms: _206  and  _209
REMARK   93  A    between atoms: _209  and  _210
REMARK   94  A    between atoms: _213  and  _215
REMARK   95  A    between atoms: _215  and  _216
REMARK   96  A    between atoms: _215  and  _218
REMARK   97  A    between atoms: _221  and  _223
REMARK   98  A    between atoms: _223  and  _224
REMARK   99  A    between atoms: _227  and  _228
REMARK  100  A    between atoms: _233  and  _235
REMARK  101  A    between atoms: _235  and  _236
REMARK  102  A    between atoms: _235  and  _238
REMARK  103  A    between atoms: _238  and  _239
REMARK  104  A    between atoms: _241  and  _243
REMARK  105  A    between atoms: _243  and  _244
REMARK  106  A    between atoms: _243  and  _246
REMARK  107  A    between atoms: _246  and  _247
REMARK  108  A    between atoms: _250  and  _252
REMARK  109  A    between atoms: _252  and  _253
REMARK  110  A    between atoms: _252  and  _255
REMARK  111  A    between atoms: _255  and  _256
REMARK  112  A    between atoms: _256  and  _257
REMARK  113  A    between atoms: _257  and  _258
REMARK  114  A    between atoms: _267  and  _269
REMARK  115  A    between atoms: _269  and  _270
REMARK  116  A    between atoms: _269  and  _272
REMARK  117  A    between atoms: _272  and  _273
REMARK  118  A    between atoms: _276  and  _278
REMARK  119  A    between atoms: _278  and  _279
REMARK  120  A    between atoms: _278  and  _281
REMARK  121  A    between atoms: _281  and  _282
REMARK  122  A    between atoms: _285  and  _286
REMARK  123  A    between atoms: _291  and  _293
REMARK  124  A    between atoms: _293  and  _294
REMARK  125  A    between atoms: _296  and  _298
REMARK  126  A    between atoms: _298  and  _299
REMARK  127  A    between atoms: _298  and  _301
REMARK  128  A    between atoms: _304  and  _306
REMARK  129  A    between atoms: _306  and  _307
REMARK  130  A    between atoms: _309  and  _311
REMARK  131  A    between atoms: _311  and  _312
REMARK  132  A    between atoms: _315  and  _317
REMARK  133  A    between atoms: _317  and  _318
REMARK  134  A    between atoms: _317  and  _320
REMARK  135  A    between atoms: _320  and  _321
REMARK  136  A    between atoms: _321  and  _322
REMARK  137  A    between atoms: _327  and  _329
REMARK  138  A    between atoms: _329  and  _330
REMARK  139  A    between atoms: _332  and  _334
REMARK  140  A    between atoms: _334  and  _335
REMARK  141  A    between atoms: _337  and  _339
REMARK  142  A    between atoms: _339  and  _340
REMARK  143  A    between atoms: _339  and  _342
REMARK  144  A    between atoms: _342  and  _343
REMARK  145  A    between atoms: _346  and  _348
REMARK  146  A    between atoms: _348  and  _349
REMARK  147  A    between atoms: _348  and  _351
REMARK  148  A    between atoms: _354  and  _356
REMARK  149  A    between atoms: _356  and  _357
REMARK  150  A    between atoms: _359  and  _361
REMARK  151  A    between atoms: _361  and  _362
REMARK  152  A    between atoms: _361  and  _364
REMARK  153  A    between atoms: _364  and  _365
REMARK  154  A    between atoms: _365  and  _366
REMARK  155  A    between atoms: _366  and  _367
REMARK  156  A    between atoms: _376  and  _378
REMARK  157  A    between atoms: _378  and  _379
REMARK  158  A    between atoms: _378  and  _381
REMARK  159  A    between atoms: _381  and  _382
REMARK  160  A    between atoms: _384  and  _386
REMARK  161  A    between atoms: _386  and  _387
REMARK  162  A    between atoms: _386  and  _389
REMARK  163  A    between atoms: _389  and  _390
REMARK  164  A    between atoms: _393  and  _395
REMARK  165  A    between atoms: _395  and  _396
REMARK  166  A    between atoms: _395  and  _398
REMARK  167  A    between atoms: _398  and  _399
REMARK  168  A    between atoms: _404  and  _405
REMARK  169  A    between atoms: _407  and  _409
REMARK  170  A    between atoms: _409  and  _410
REMARK  171  A    between atoms: _409  and  _412
REMARK  172  A    between atoms: _412  and  _413
REMARK  173  A    between atoms: _416  and  _418
REMARK  174  A    between atoms: _418  and  _419
REMARK  175  A    between atoms: _422  and  _424
REMARK  176  A    between atoms: _424  and  _425
REMARK  177  A    between atoms: _424  and  _427
REMARK  178  A    between atoms: _427  and  _428
REMARK  179  A    between atoms: _431  and  _433
REMARK  180  A    between atoms: _433  and  _434
REMARK  181  A    between atoms: _433  and  _436
REMARK  182  A    between atoms: _436  and  _437
REMARK  183  A    between atoms: _441  and  _442
REMARK  184  A    between atoms: _447  and  _449
REMARK  185  A    between atoms: _449  and  _450
REMARK  186  A    between atoms: _449  and  _452
REMARK  187  A    between atoms: _452  and  _453
REMARK  188  A    between atoms: _453  and  _454
REMARK  189  A    between atoms: _457  and  _459
REMARK  190  A    between atoms: _459  and  _460
REMARK  191  A    between atoms: _459  and  _462
REMARK  192  A    between atoms: _462  and  _463
REMARK  193  A    between atoms: _466  and  _468
REMARK  194  A    between atoms: _468  and  _469
REMARK  195  A    between atoms: _468  and  _471
REMARK  196  A    between atoms: _471  and  _472
REMARK  197  A    between atoms: _477  and  _479
REMARK  198  A    between atoms: _479  and  _480
REMARK  199  A    between atoms: _479  and  _482
REMARK  200  A    between atoms: _482  and  _483
REMARK  201  A    between atoms: _483  and  _484
REMARK  202  A    between atoms: _484  and  _485
REMARK  203  A    between atoms: _485  and  _486
REMARK  204  A    between atoms: _490  and  _492
REMARK  205  A    between atoms: _492  and  _493
REMARK  206  A    between atoms: _492  and  _495
REMARK  207  A    between atoms: _495  and  _496
REMARK                            x       y       z     vdW  Elec       q    Type
REMARK                         _______ _______ _______ _____ _____    ______ ____
ROOT
ATOM      1  CA  ILE A   1      14.070   7.878  13.375  0.00  0.00    +0.133 C 
ENDROOT
BRANCH   1   2
ATOM      2  N   ILE A   1      14.565   8.321  14.669  0.00  0.00    -0.239 NA
ATOM      3  H   ILE A   1      15.021   7.639  15.308  0.00  0.00    +0.142 HD
ENDBRANCH   1   2
BRANCH   1   4
ATOM      4  C   ILE A   1      12.688   7.268  13.577  0.00  0.00    +0.224 C 
ATOM      5  O   ILE A   1      12.495   6.423  14.441  0.00  0.00    -0.287 OA
ENDBRANCH   1   4
BRANCH   1   6
ATOM      6  CB  ILE A   1      15.023   6.851  12.727  0.00  0.00    +0.023 C 
ATOM      7  CG2 ILE A   1      14.431   6.351  11.398  0.00  0.00    +0.002 C 
BRANCH   6   8
ATOM      8  CG1 ILE A   1      16.366   7.530  12.426  0.00  0.00    +0.002 C 
ATOM      9  CD1 ILE A   1      17.463   6.592  11.946  0.00  0.00    +0.000 C 
ENDBRANCH   6   8
ENDBRANCH   1   6
TORSDOF 4
REMARK  Name = ../refined-set-2016/3g1d/3g1d_pocket.pdb
REMARK  207 active torsions:
REMARK  status: ('A' for Active; 'I' for Inactive)
REMARK    1  A    between atoms: _1  and  _3
REMARK    2  A    between atoms: _3  and  _4
REMARK    3  A    between atoms: _3  and  _6
REMARK    4  A    between atoms: _6  and  _7
REMARK    5  A    between atoms: _10  and  _12
REMARK    6  A    between atoms: _12  and  _13
REMARK    7  A    between atoms: _12  and  _15
REMARK    8  A    between atoms: _15  and  _16
REMARK    9  A    between atoms: _19  and  _21
REMARK   10  A    between atoms: _21  and  _22
REMARK   11  A    between atoms: _25  and  _27
REMARK   12  A    between atoms: _27  and  _28
REMARK   13  A    between atoms: _27  and  _30
REMARK   14  A    between atoms: _30  and  _31
REMARK   15  A    between atoms: _31  and  _32
REMARK   16  A    between atoms: _34  and  _36
REMARK   17  A    between atoms: _36  and  _37
REMARK   18  A    between atoms: _36  and  _39
REMARK   19  A    between atoms: _39  and  _40
REMARK   20  A    between atoms: _43  and  _45
REMARK   21  A    between atoms: _45  and  _46
REMARK   22  A    between atoms: _45  and  _48
REMARK   23  A    between atoms: _48  and  _49
REMARK   24  A    between atoms: _49  and  _50
REMARK   25  A    between atoms: _50  and  _51
REMARK   26  A    between atoms: _51  and  _52
REMARK   27  A    between atoms: _56  and  _58
REMARK   28  A    between atoms: _58  and  _59
REMARK   29  A    between atoms: _58  and  _61
REMARK   30  A    between atoms: _61  and  _62
REMARK   31  A    between atoms: _65  and  _67
REMARK   32  A    between atoms: _67  and  _68
REMARK   33  A    between atoms: _70  and  _72
REMARK   34  A    between atoms: _72  and  _73
REMARK   35  A    between atoms: _72  and  _75
REMARK   36  A    between atoms: _75  and  _76
REMARK   37  A    between atoms: _81  and  _82
REMARK   38  A    between atoms: _85  and  _86
REMARK   39  A    between atoms: _91  and  _93
REMARK   40  A    between atoms: _93  and  _94
REMARK   41  A    between atoms: _93  and  _96
REMARK   42  A    between atoms: _96  and  _97
REMARK   43  A    between atoms: _100  and  _102
REMARK   44  A    between atoms: _102  and  _103
REMARK   45  A    between atoms: _102  and  _105
REMARK   46  A    between atoms: _105  and  _106
REMARK   47  A    between atoms: _109  and  _111
REMARK   48  A    between atoms: _111  and  _112
REMARK   49  A    between atoms: _111  and  _114
REMARK   50  A    between atoms: _114  and  _115
REMARK   51  A    between atoms: _115  and  _116
REMARK   52  A    between atoms: _116  and  _117
REMARK   53  A    between atoms: _117  and  _118
REMARK   54  A    between atoms: _122  and  _124
REMARK   55  A    between atoms: _124  and  _125
REMARK   56  A    between atoms: _124  and  _127
REMARK   57  A    between atoms: _127  and  _128
REMARK   58  A    between atoms: _131  and  _133
REMARK   59  A    between atoms: _133  and  _134
REMARK   60  A    between atoms: _133  and  _136
REMARK   61  A    between atoms: _136  and  _137
REMARK   62  A    between atoms: _142  and  _144
REMARK   63  A    between atoms: _144  and  _145
REMARK   64  A    between atoms: _144  and  _147
REMARK   65  A    between atoms: _147  and  _148
REMARK   66  A    between atoms: _151  and  _153
REMARK   67  A    between atoms: _153  and  _154
REMARK   68  A    between atoms: _153  and  _156
REMARK   69  A    between atoms: _156  and  _157
REMARK   70  A    between atoms: _160  and  _162
REMARK   71  A    between atoms: _162  and  _163
REMARK   72  A    between atoms: _162  and  _165
REMARK   73  A    between atoms: _165  and  _166
REMARK   74  A    between atoms: _166  and  _167
REMARK   75  A    between atoms: _170  and  _172
REMARK   76  A    between atoms: _172  and  _173
REMARK   77  A    between atoms: _172  and  _175
REMARK   78  A    between atoms: _175  and  _176
REMARK   79  A    between atoms: _176  and  _177
REMARK   80  A    between atoms: _179  and  _181
REMARK   81  A    between atoms: _181  and  _182
REMARK   82  A    between atoms: _181  and  _184
REMARK   83  A    between atoms: _184  and  _185
REMARK   84  A    between atoms: _187  and  _189
REMARK   85  A    between atoms: _189  and  _190
REMARK   86  A    between atoms: _189  and  _192
REMARK   87  A    between atoms: _192  and  _193
REMARK   88  A    between atoms: _198  and  _200
REMARK   89  A    between atoms: _200  and  _201
REMARK   90  A    between atoms: _204  and  _206
REMARK   91  A    between atoms: _206  and  _207
REMARK   92  A    between atoms: _206  and  _209
REMARK   93  A    between atoms: _209  and  _210
REMARK   94  A    between atoms: _213  and  _215
REMARK   95  A    between atoms: _215  and  _216
REMARK   96  A    between atoms: _215  and  _218
REMARK   97  A    between atoms: _221  and  _223
REMARK   98  A    between atoms: _223  and  _224
REMARK   99  A    between atoms: _227  and  _228
REMARK  100  A    between atoms: _233  and  _235
REMARK  101  A    between atoms: _235  and  _236
REMARK  102  A    between atoms: _235  and  _238
REMARK  103  A    between atoms: _238  and  _239
REMARK  104  A    between atoms: _241  and  _243
REMARK  105  A    between atoms: _243  and  _244
REMARK  106  A    between atoms: _243  and  _246
REMARK  107  A    between atoms: _246  and  _247
REMARK  108  A    between atoms: _250  and  _252
REMARK  109  A    between atoms: _252  and  _253
REMARK  110  A    between atoms: _252  and  _255
REMARK  111  A    between atoms: _255  and  _256
REMARK  112  A    between atoms: _256  and  _257
REMARK  113  A    between atoms: _257  and  _258
REMARK  114  A    between atoms: _267  and  _269
REMARK  115  A    between atoms: _269  and  _270
REMARK  116  A    between atoms: _269  and  _272
REMARK  117  A    between atoms: _272  and  _273
REMARK  118  A    between atoms: _276  and  _278
REMARK  119  A    between atoms: _278  and  _279
REMARK  120  A    between atoms: _278  and  _281
REMARK  121  A    between atoms: _281  and  _282
REMARK  122  A    between atoms: _285  and  _286
REMARK  123  A    between atoms: _291  and  _293
REMARK  124  A    between atoms: _293  and  _294
REMARK  125  A    between atoms: _296  and  _298
REMARK  126  A    between atoms: _298  and  _299
REMARK  127  A    between atoms: _298  and  _301
REMARK  128  A    between atoms: _304  and  _306
REMARK  129  A    between atoms: _306  and  _307
REMARK  130  A    between atoms: _309  and  _311
REMARK  131  A    between atoms: _311  and  _312
REMARK  132  A    between atoms: _315  and  _317
REMARK  133  A    between atoms: _317  and  _318
REMARK  134  A    between atoms: _317  and  _320
REMARK  135  A    between atoms: _320  and  _321
REMARK  136  A    between atoms: _321  and  _322
REMARK  137  A    between atoms: _327  and  _329
REMARK  138  A    between atoms: _329  and  _330
REMARK  139  A    between atoms: _332  and  _334
REMARK  140  A    between atoms: _334  and  _335
REMARK  141  A    between atoms: _337  and  _339
REMARK  142  A    between atoms: _339  and  _340
REMARK  143  A    between atoms: _339  and  _342
REMARK  144  A    between atoms: _342  and  _343
REMARK  145  A    between atoms: _346  and  _348
REMARK  146  A    between atoms: _348  and  _349
REMARK  147  A    between atoms: _348  and  _351
REMARK  148  A    between atoms: _354  and  _356
REMARK  149  A    between atoms: _356  and  _357
REMARK  150  A    between atoms: _359  and  _361
REMARK  151  A    between atoms: _361  and  _362
REMARK  152  A    between atoms: _361  and  _364
REMARK  153  A    between atoms: _364  and  _365
REMARK  154  A    between atoms: _365  and  _366
REMARK  155  A    between atoms: _366  and  _367
REMARK  156  A    between atoms: _376  and  _378
REMARK  157  A    between atoms: _378  and  _379
REMARK  158  A    between atoms: _378  and  _381
REMARK  159  A    between atoms: _381  and  _382
REMARK  160  A    between atoms: _384  and  _386
REMARK  161  A    between atoms: _386  and  _387
REMARK  162  A    between atoms: _386  and  _389
REMARK  163  A    between atoms: _389  and  _390
REMARK  164  A    between atoms: _393  and  _395
REMARK  165  A    between atoms: _395  and  _396
REMARK  166  A    between atoms: _395  and  _398
REMARK  167  A    between atoms: _398  and  _399
REMARK  168  A    between atoms: _404  and  _405
REMARK  169  A    between atoms: _407  and  _409
REMARK  170  A    between atoms: _409  and  _410
REMARK  171  A    between atoms: _409  and  _412
REMARK  172  A    between atoms: _412  and  _413
REMARK  173  A    between atoms: _416  and  _418
REMARK  174  A    between atoms: _418  and  _419
REMARK  175  A    between atoms: _422  and  _424
REMARK  176  A    between atoms: _424  and  _425
REMARK  177  A    between atoms: _424  and  _427
REMARK  178  A    between atoms: _427  and  _428
REMARK  179  A    between atoms: _431  and  _433
REMARK  180  A    between atoms: _433  and  _434
REMARK  181  A    between atoms: _433  and  _436
REMARK  182  A    between atoms: _436  and  _437
REMARK  183  A    between atoms: _441  and  _442
REMARK  184  A    between atoms: _447  and  _449
REMARK  185  A    between atoms: _449  and  _450
REMARK  186  A    between atoms: _449  and  _452
REMARK  187  A    between atoms: _452  and  _453
REMARK  188  A    between atoms: _453  and  _454
REMARK  189  A    between atoms: _457  and  _459
REMARK  190  A    between atoms: _459  and  _460
REMARK  191  A    between atoms: _459  and  _462
REMARK  192  A    between atoms: _462  and  _463
REMARK  193  A    between atoms: _466  and  _468
REMARK  194  A    between atoms: _468  and  _469
REMARK  195  A    between atoms: _468  and  _471
REMARK  196  A    between atoms: _471  and  _472
REMARK  197  A    between atoms: _477  and  _479
REMARK  198  A    between atoms: _479  and  _480
REMARK  199  A    between atoms: _479  and  _482
REMARK  200  A    between atoms: _482  and  _483
REMARK  201  A    between atoms: _483  and  _484
REMARK  202  A    between atoms: _484  and  _485
REMARK  203  A    between atoms: _485  and  _486
REMARK  204  A    between atoms: _490  and  _492
REMARK  205  A    between atoms: _492  and  _493
REMARK  206  A    between atoms: _492  and  _495
REMARK  207  A    between atoms: _495  and  _496
REMARK                            x       y       z     vdW  Elec       q    Type
REMARK                         _______ _______ _______ _____ _____    ______ ____
ROOT
ATOM      1  CB  HIS A   1       8.045   3.478  10.867  0.00  0.00    +0.072 C 
ENDROOT
BRANCH   1   2
ATOM      2  CG  HIS A   1       8.879   2.388  10.281  0.00  0.00    +0.082 A 
ATOM      3  ND1 HIS A   1       9.413   1.367  11.036  0.00  0.00    -0.227 NA
ATOM      4  CE1 HIS A   1      10.106   0.561  10.252  0.00  0.00    +0.199 A 
ATOM      5  NE2 HIS A   1      10.041   1.022   9.018  0.00  0.00    -0.221 NA
ATOM      6  CD2 HIS A   1       9.278   2.163   9.008  0.00  0.00    +0.115 A 
ENDBRANCH   1   2
BRANCH   1   7
ATOM      7  CA  HIS A   1       8.535   4.879  10.506  0.00  0.00    +0.139 C 
BRANCH   7   8
ATOM      8  N   HIS A   1       9.080   5.550  11.681  0.00  0.00    -0.239 NA
ATOM      9  H   HIS A   1       8.837   5.204  12.631  0.00  0.00    +0.142 HD
ENDBRANCH   7   8
BRANCH   7  10
ATOM     10  C   HIS A   1       7.370   5.686   9.952  0.00  0.00    +0.224 C 
ATOM     11  O   HIS A   1       6.539   6.187  10.711  0.00  0.00    -0.287 OA
ENDBRANCH   7  10
ENDBRANCH   1   7
TORSDOF 4
REMARK  Name = ../refined-set-2016/3g1d/3g1d_pocket.pdb
REMARK  207 active torsions:
REMARK  status: ('A' for Active; 'I' for Inactive)
REMARK    1  A    between atoms: _1  and  _3
REMARK    2  A    between atoms: _3  and  _4
REMARK    3  A    between atoms: _3  and  _6
REMARK    4  A    between atoms: _6  and  _7
REMARK    5  A    between atoms: _10  and  _12
REMARK    6  A    between atoms: _12  and  _13
REMARK    7  A    between atoms: _12  and  _15
REMARK    8  A    between atoms: _15  and  _16
REMARK    9  A    between atoms: _19  and  _21
REMARK   10  A    between atoms: _21  and  _22
REMARK   11  A    between atoms: _25  and  _27
REMARK   12  A    between atoms: _27  and  _28
REMARK   13  A    between atoms: _27  and  _30
REMARK   14  A    between atoms: _30  and  _31
REMARK   15  A    between atoms: _31  and  _32
REMARK   16  A    between atoms: _34  and  _36
REMARK   17  A    between atoms: _36  and  _37
REMARK   18  A    between atoms: _36  and  _39
REMARK   19  A    between atoms: _39  and  _40
REMARK   20  A    between atoms: _43  and  _45
REMARK   21  A    between atoms: _45  and  _46
REMARK   22  A    between atoms: _45  and  _48
REMARK   23  A    between atoms: _48  and  _49
REMARK   24  A    between atoms: _49  and  _50
REMARK   25  A    between atoms: _50  and  _51
REMARK   26  A    between atoms: _51  and  _52
REMARK   27  A    between atoms: _56  and  _58
REMARK   28  A    between atoms: _58  and  _59
REMARK   29  A    between atoms: _58  and  _61
REMARK   30  A    between atoms: _61  and  _62
REMARK   31  A    between atoms: _65  and  _67
REMARK   32  A    between atoms: _67  and  _68
REMARK   33  A    between atoms: _70  and  _72
REMARK   34  A    between atoms: _72  and  _73
REMARK   35  A    between atoms: _72  and  _75
REMARK   36  A    between atoms: _75  and  _76
REMARK   37  A    between atoms: _81  and  _82
REMARK   38  A    between atoms: _85  and  _86
REMARK   39  A    between atoms: _91  and  _93
REMARK   40  A    between atoms: _93  and  _94
REMARK   41  A    between atoms: _93  and  _96
REMARK   42  A    between atoms: _96  and  _97
REMARK   43  A    between atoms: _100  and  _102
REMARK   44  A    between atoms: _102  and  _103
REMARK   45  A    between atoms: _102  and  _105
REMARK   46  A    between atoms: _105  and  _106
REMARK   47  A    between atoms: _109  and  _111
REMARK   48  A    between atoms: _111  and  _112
REMARK   49  A    between atoms: _111  and  _114
REMARK   50  A    between atoms: _114  and  _115
REMARK   51  A    between atoms: _115  and  _116
REMARK   52  A    between atoms: _116  and  _117
REMARK   53  A    between atoms: _117  and  _118
REMARK   54  A    between atoms: _122  and  _124
REMARK   55  A    between atoms: _124  and  _125
REMARK   56  A    between atoms: _124  and  _127
REMARK   57  A    between atoms: _127  and  _128
REMARK   58  A    between atoms: _131  and  _133
REMARK   59  A    between atoms: _133  and  _134
REMARK   60  A    between atoms: _133  and  _136
REMARK   61  A    between atoms: _136  and  _137
REMARK   62  A    between atoms: _142  and  _144
REMARK   63  A    between atoms: _144  and  _145
REMARK   64  A    between atoms: _144  and  _147
REMARK   65  A    between atoms: _147  and  _148
REMARK   66  A    between atoms: _151  and  _153
REMARK   67  A    between atoms: _153  and  _154
REMARK   68  A    between atoms: _153  and  _156
REMARK   69  A    between atoms: _156  and  _157
REMARK   70  A    between atoms: _160  and  _162
REMARK   71  A    between atoms: _162  and  _163
REMARK   72  A    between atoms: _162  and  _165
REMARK   73  A    between atoms: _165  and  _166
REMARK   74  A    between atoms: _166  and  _167
REMARK   75  A    between atoms: _170  and  _172
REMARK   76  A    between atoms: _172  and  _173
REMARK   77  A    between atoms: _172  and  _175
REMARK   78  A    between atoms: _175  and  _176
REMARK   79  A    between atoms: _176  and  _177
REMARK   80  A    between atoms: _179  and  _181
REMARK   81  A    between atoms: _181  and  _182
REMARK   82  A    between atoms: _181  and  _184
REMARK   83  A    between atoms: _184  and  _185
REMARK   84  A    between atoms: _187  and  _189
REMARK   85  A    between atoms: _189  and  _190
REMARK   86  A    between atoms: _189  and  _192
REMARK   87  A    between atoms: _192  and  _193
REMARK   88  A    between atoms: _198  and  _200
REMARK   89  A    between atoms: _200  and  _201
REMARK   90  A    between atoms: _204  and  _206
REMARK   91  A    between atoms: _206  and  _207
REMARK   92  A    between atoms: _206  and  _209
REMARK   93  A    between atoms: _209  and  _210
REMARK   94  A    between atoms: _213  and  _215
REMARK   95  A    between atoms: _215  and  _216
REMARK   96  A    between atoms: _215  and  _218
REMARK   97  A    between atoms: _221  and  _223
REMARK   98  A    between atoms: _223  and  _224
REMARK   99  A    between atoms: _227  and  _228
REMARK  100  A    between atoms: _233  and  _235
REMARK  101  A    between atoms: _235  and  _236
REMARK  102  A    between atoms: _235  and  _238
REMARK  103  A    between atoms: _238  and  _239
REMARK  104  A    between atoms: _241  and  _243
REMARK  105  A    between atoms: _243  and  _244
REMARK  106  A    between atoms: _243  and  _246
REMARK  107  A    between atoms: _246  and  _247
REMARK  108  A    between atoms: _250  and  _252
REMARK  109  A    between atoms: _252  and  _253
REMARK  110  A    between atoms: _252  and  _255
REMARK  111  A    between atoms: _255  and  _256
REMARK  112  A    between atoms: _256  and  _257
REMARK  113  A    between atoms: _257  and  _258
REMARK  114  A    between atoms: _267  and  _269
REMARK  115  A    between atoms: _269  and  _270
REMARK  116  A    between atoms: _269  and  _272
REMARK  117  A    between atoms: _272  and  _273
REMARK  118  A    between atoms: _276  and  _278
REMARK  119  A    between atoms: _278  and  _279
REMARK  120  A    between atoms: _278  and  _281
REMARK  121  A    between atoms: _281  and  _282
REMARK  122  A    between atoms: _285  and  _286
REMARK  123  A    between atoms: _291  and  _293
REMARK  124  A    between atoms: _293  and  _294
REMARK  125  A    between atoms: _296  and  _298
REMARK  126  A    between atoms: _298  and  _299
REMARK  127  A    between atoms: _298  and  _301
REMARK  128  A    between atoms: _304  and  _306
REMARK  129  A    between atoms: _306  and  _307
REMARK  130  A    between atoms: _309  and  _311
REMARK  131  A    between atoms: _311  and  _312
REMARK  132  A    between atoms: _315  and  _317
REMARK  133  A    between atoms: _317  and  _318
REMARK  134  A    between atoms: _317  and  _320
REMARK  135  A    between atoms: _320  and  _321
REMARK  136  A    between atoms: _321  and  _322
REMARK  137  A    between atoms: _327  and  _329
REMARK  138  A    between atoms: _329  and  _330
REMARK  139  A    between atoms: _332  and  _334
REMARK  140  A    between atoms: _334  and  _335
REMARK  141  A    between atoms: _337  and  _339
REMARK  142  A    between atoms: _339  and  _340
REMARK  143  A    between atoms: _339  and  _342
REMARK  144  A    between atoms: _342  and  _343
REMARK  145  A    between atoms: _346  and  _348
REMARK  146  A    between atoms: _348  and  _349
REMARK  147  A    between atoms: _348  and  _351
REMARK  148  A    between atoms: _354  and  _356
REMARK  149  A    between atoms: _356  and  _357
REMARK  150  A    between atoms: _359  and  _361
REMARK  151  A    between atoms: _361  and  _362
REMARK  152  A    between atoms: _361  and  _364
REMARK  153  A    between atoms: _364  and  _365
REMARK  154  A    between atoms: _365  and  _366
REMARK  155  A    between atoms: _366  and  _367
REMARK  156  A    between atoms: _376  and  _378
REMARK  157  A    between atoms: _378  and  _379
REMARK  158  A    between atoms: _378  and  _381
REMARK  159  A    between atoms: _381  and  _382
REMARK  160  A    between atoms: _384  and  _386
REMARK  161  A    between atoms: _386  and  _387
REMARK  162  A    between atoms: _386  and  _389
REMARK  163  A    between atoms: _389  and  _390
REMARK  164  A    between atoms: _393  and  _395
REMARK  165  A    between atoms: _395  and  _396
REMARK  166  A    between atoms: _395  and  _398
REMARK  167  A    between atoms: _398  and  _399
REMARK  168  A    between atoms: _404  and  _405
REMARK  169  A    between atoms: _407  and  _409
REMARK  170  A    between atoms: _409  and  _410
REMARK  171  A    between atoms: _409  and  _412
REMARK  172  A    between atoms: _412  and  _413
REMARK  173  A    between atoms: _416  and  _418
REMARK  174  A    between atoms: _418  and  _419
REMARK  175  A    between atoms: _422  and  _424
REMARK  176  A    between atoms: _424  and  _425
REMARK  177  A    between atoms: _424  and  _427
REMARK  178  A    between atoms: _427  and  _428
REMARK  179  A    between atoms: _431  and  _433
REMARK  180  A    between atoms: _433  and  _434
REMARK  181  A    between atoms: _433  and  _436
REMARK  182  A    between atoms: _436  and  _437
REMARK  183  A    between atoms: _441  and  _442
REMARK  184  A    between atoms: _447  and  _449
REMARK  185  A    between atoms: _449  and  _450
REMARK  186  A    between atoms: _449  and  _452
REMARK  187  A    between atoms: _452  and  _453
REMARK  188  A    between atoms: _453  and  _454
REMARK  189  A    between atoms: _457  and  _459
REMARK  190  A    between atoms: _459  and  _460
REMARK  191  A    between atoms: _459  and  _462
REMARK  192  A    between atoms: _462  and  _463
REMARK  193  A    between atoms: _466  and  _468
REMARK  194  A    between atoms: _468  and  _469
REMARK  195  A    between atoms: _468  and  _471
REMARK  196  A    between atoms: _471  and  _472
REMARK  197  A    between atoms: _477  and  _479
REMARK  198  A    between atoms: _479  and  _480
REMARK  199  A    between atoms: _479  and  _482
REMARK  200  A    between atoms: _482  and  _483
REMARK  201  A    between atoms: _483  and  _484
REMARK  202  A    between atoms: _484  and  _485
REMARK  203  A    between atoms: _485  and  _486
REMARK  204  A    between atoms: _490  and  _492
REMARK  205  A    between atoms: _492  and  _493
REMARK  206  A    between atoms: _492  and  _495
REMARK  207  A    between atoms: _495  and  _496
REMARK                            x       y       z     vdW  Elec       q    Type
REMARK                         _______ _______ _______ _____ _____    ______ ____
ROOT
ATOM      1  C   GLU A   3      12.897   2.340   2.832  0.00  0.00    +0.241 C 
ATOM      2  N   MET A   4      12.766   1.060   3.171  0.00  0.00    -0.297 N 
ATOM      3  H   MET A   4      11.874   0.569   2.959  0.00  0.00    +0.150 HD
ATOM      4  O   GLU A   3      13.919   2.993   3.043  0.00  0.00    -0.273 OA
ENDROOT
BRANCH   2   5
ATOM      5  CA  MET A   4      13.839   0.328   3.831  0.00  0.00    +0.149 C 
BRANCH   5   6
ATOM      6  C   MET A   4      14.800  -0.329   2.841  0.00  0.00    +0.241 C 
ATOM      7  N   SER A   5      15.963  -0.729   3.337  0.00  0.00    -0.295 N 
ATOM      8  H   SER A   5      16.129  -0.632   4.359  0.00  0.00    +0.150 HD
ATOM      9  O   MET A   4      14.486  -0.485   1.660  0.00  0.00    -0.273 OA
BRANCH   7  10
ATOM     10  CA  SER A   5      17.020  -1.300   2.506  0.00  0.00    +0.178 C 
BRANCH  10  11
ATOM     11  C   SER A   5      17.080  -2.811   2.255  0.00  0.00    +0.243 C 
ATOM     12  N   HIS A   6      16.398  -3.594   3.082  0.00  0.00    -0.298 N 
ATOM     13  H   HIS A   6      15.830  -3.162   3.838  0.00  0.00    +0.150 HD
ATOM     14  O   SER A   5      17.746  -3.259   1.309  0.00  0.00    -0.273 OA
BRANCH  12  15
ATOM     15  CA  HIS A   6      16.427  -5.051   2.954  0.00  0.00    +0.143 C 
BRANCH  15  16
ATOM     16  C   HIS A   6      15.464  -5.543   1.877  0.00  0.00    +0.227 C 
ATOM     17  O   HIS A   6      14.502  -4.856   1.540  0.00  0.00    -0.286 OA
ENDBRANCH  15  16
BRANCH  15  18
ATOM     18  CB  HIS A   6      16.083  -5.680   4.299  0.00  0.00    +0.075 C 
BRANCH  18  19
ATOM     19  CG  HIS A   6      14.688  -5.401   4.746  0.00  0.00    +0.082 A 
ATOM     20  CD2 HIS A   6      13.655  -6.235   5.007  0.00  0.00    +0.115 A 
ATOM     21  NE2 HIS A   6      12.583  -5.454   5.355  0.00  0.00    -0.221 NA
ATOM     22  CE1 HIS A   6      12.946  -4.184   5.314  0.00  0.00    +0.199 A 
ATOM     23  ND1 HIS A   6      14.213  -4.125   4.948  0.00  0.00    -0.227 NA
ENDBRANCH  18  19
ENDBRANCH  15  18
ENDBRANCH  12  15
ENDBRANCH  10  11
BRANCH  10  24
ATOM     24  CB  SER A   5      18.363  -0.847   3.078  0.00  0.00    +0.166 C 
BRANCH  24  25
ATOM     25  OG  SER A   5      18.537  -1.366   4.388  0.00  0.00    -0.380 OA
ATOM     26  H   SER A   5      18.515  -2.355   4.355  0.00  0.00    +0.211 HD
ENDBRANCH  24  25
ENDBRANCH  10  24
ENDBRANCH   7  10
ENDBRANCH   5   6
BRANCH   5  27
ATOM     27  CB  MET A   4      13.245  -0.694   4.799  0.00  0.00    +0.041 C 
BRANCH  27  28
ATOM     28  CG  MET A   4      12.615  -0.033   6.024  0.00  0.00    +0.060 C 
BRANCH  28  29
ATOM     29  SD  MET A   4      11.943  -1.231   7.178  0.00  0.00    -0.139 S 
ATOM     30  CE  MET A   4      13.472  -1.886   7.922  0.00  0.00    +0.069 C 
ENDBRANCH  28  29
ENDBRANCH  27  28
ENDBRANCH   5  27
ENDBRANCH   2   5
BRANCH   1  31
ATOM     31  CA  GLU A   3      11.700   2.982   2.155  0.00  0.00    +0.149 C 
BRANCH  31  34
ATOM     32  C   THR A   2      10.502   4.622   3.503  0.00  0.00    +0.243 C 
ATOM     33  O   THR A   2       9.729   3.765   3.924  0.00  0.00    -0.273 OA
ATOM     34  N   GLU A   3      11.492   4.336   2.666  0.00  0.00    -0.297 N 
ATOM     35  H   GLU A   3      12.137   5.095   2.366  0.00  0.00    +0.150 HD
BRANCH  32  36
ATOM     36  CA  THR A   2      10.365   6.074   3.982  0.00  0.00    +0.176 C 
BRANCH  36  39
ATOM     37  C   LEU A   1      11.015   6.160   6.303  0.00  0.00    +0.238 C 
ATOM     38  O   LEU A   1       9.895   5.792   6.668  0.00  0.00    -0.274 OA
ATOM     39  N   THR A   2      11.337   6.331   5.029  0.00  0.00    -0.295 N 
ATOM     40  H   THR A   2      12.294   6.652   4.777  0.00  0.00    +0.150 HD
BRANCH  37  41
ATOM     41  CA  LEU A   1      12.108   6.459   7.322  0.00  0.00    +0.145 C 
BRANCH  41  42
ATOM     42  N   LEU A   1      11.674   7.606   8.090  0.00  0.00    -0.238 NA
ATOM     43  H   LEU A   1      11.177   7.457   8.991  0.00  0.00    +0.142 HD
ENDBRANCH  41  42
BRANCH  41  44
ATOM     44  CB  LEU A   1      12.312   5.257   8.248  0.00  0.00    +0.026 C 
BRANCH  44  45
ATOM     45  CG  LEU A   1      12.558   3.894   7.609  0.00  0.00    +0.002 C 
ATOM     46  CD2 LEU A   1      12.746   2.863   8.732  0.00  0.00    +0.000 C 
ATOM     47  CD1 LEU A   1      13.777   3.929   6.723  0.00  0.00    +0.000 C 
ENDBRANCH  44  45
ENDBRANCH  41  44
ENDBRANCH  37  41
ENDBRANCH  36  39
BRANCH  36  48
ATOM     48  CB  THR A   2      10.518   7.094   2.813  0.00  0.00    +0.137 C 
ATOM     49  CG2 THR A   2      10.338   8.526   3.332  0.00  0.00    +0.034 C 
BRANCH  48  50
ATOM     50  OG1 THR A   2      11.817   6.985   2.226  0.00  0.00    -0.382 OA
ATOM     51  HG1 THR A   2      11.899   7.638   1.486  0.00  0.00    +0.210 HD
ENDBRANCH  48  50
ENDBRANCH  36  48
ENDBRANCH  32  36
ENDBRANCH  31  34
BRANCH  31  52
ATOM     52  CB  GLU A   3      11.912   2.989   0.628  0.00  0.00    +0.041 C 
BRANCH  52  53
ATOM     53  CG  GLU A   3      12.284   1.614   0.062  0.00  0.00    +0.116 C 
BRANCH  53  54
ATOM     54  CD  GLU A   3      12.164   1.500  -1.455  0.00  0.00    +0.365 C 
ATOM     55  OE2 GLU A   3      12.644   0.483  -2.011  0.00  0.00    -0.246 OA
ATOM     56  OE1 GLU A   3      11.587   2.408  -2.089  0.00  0.00    -0.246 OA
ENDBRANCH  53  54
ENDBRANCH  52  53
ENDBRANCH  31  52
ENDBRANCH   1  31
TORSDOF 26
REMARK  Name = ../refined-set-2016/3g1d/3g1d_pocket.pdb
REMARK  207 active torsions:
REMARK  status: ('A' for Active; 'I' for Inactive)
REMARK    1  A    between atoms: _1  and  _3
REMARK    2  A    between atoms: _3  and  _4
REMARK    3  A    between atoms: _3  and  _6
REMARK    4  A    between atoms: _6  and  _7
REMARK    5  A    between atoms: _10  and  _12
REMARK    6  A    between atoms: _12  and  _13
REMARK    7  A    between atoms: _12  and  _15
REMARK    8  A    between atoms: _15  and  _16
REMARK    9  A    between atoms: _19  and  _21
REMARK   10  A    between atoms: _21  and  _22
REMARK   11  A    between atoms: _25  and  _27
REMARK   12  A    between atoms: _27  and  _28
REMARK   13  A    between atoms: _27  and  _30
REMARK   14  A    between atoms: _30  and  _31
REMARK   15  A    between atoms: _31  and  _32
REMARK   16  A    between atoms: _34  and  _36
REMARK   17  A    between atoms: _36  and  _37
REMARK   18  A    between atoms: _36  and  _39
REMARK   19  A    between atoms: _39  and  _40
REMARK   20  A    between atoms: _43  and  _45
REMARK   21  A    between atoms: _45  and  _46
REMARK   22  A    between atoms: _45  and  _48
REMARK   23  A    between atoms: _48  and  _49
REMARK   24  A    between atoms: _49  and  _50
REMARK   25  A    between atoms: _50  and  _51
REMARK   26  A    between atoms: _51  and  _52
REMARK   27  A    between atoms: _56  and  _58
REMARK   28  A    between atoms: _58  and  _59
REMARK   29  A    between atoms: _58  and  _61
REMARK   30  A    between atoms: _61  and  _62
REMARK   31  A    between atoms: _65  and  _67
REMARK   32  A    between atoms: _67  and  _68
REMARK   33  A    between atoms: _70  and  _72
REMARK   34  A    between atoms: _72  and  _73
REMARK   35  A    between atoms: _72  and  _75
REMARK   36  A    between atoms: _75  and  _76
REMARK   37  A    between atoms: _81  and  _82
REMARK   38  A    between atoms: _85  and  _86
REMARK   39  A    between atoms: _91  and  _93
REMARK   40  A    between atoms: _93  and  _94
REMARK   41  A    between atoms: _93  and  _96
REMARK   42  A    between atoms: _96  and  _97
REMARK   43  A    between atoms: _100  and  _102
REMARK   44  A    between atoms: _102  and  _103
REMARK   45  A    between atoms: _102  and  _105
REMARK   46  A    between atoms: _105  and  _106
REMARK   47  A    between atoms: _109  and  _111
REMARK   48  A    between atoms: _111  and  _112
REMARK   49  A    between atoms: _111  and  _114
REMARK   50  A    between atoms: _114  and  _115
REMARK   51  A    between atoms: _115  and  _116
REMARK   52  A    between atoms: _116  and  _117
REMARK   53  A    between atoms: _117  and  _118
REMARK   54  A    between atoms: _122  and  _124
REMARK   55  A    between atoms: _124  and  _125
REMARK   56  A    between atoms: _124  and  _127
REMARK   57  A    between atoms: _127  and  _128
REMARK   58  A    between atoms: _131  and  _133
REMARK   59  A    between atoms: _133  and  _134
REMARK   60  A    between atoms: _133  and  _136
REMARK   61  A    between atoms: _136  and  _137
REMARK   62  A    between atoms: _142  and  _144
REMARK   63  A    between atoms: _144  and  _145
REMARK   64  A    between atoms: _144  and  _147
REMARK   65  A    between atoms: _147  and  _148
REMARK   66  A    between atoms: _151  and  _153
REMARK   67  A    between atoms: _153  and  _154
REMARK   68  A    between atoms: _153  and  _156
REMARK   69  A    between atoms: _156  and  _157
REMARK   70  A    between atoms: _160  and  _162
REMARK   71  A    between atoms: _162  and  _163
REMARK   72  A    between atoms: _162  and  _165
REMARK   73  A    between atoms: _165  and  _166
REMARK   74  A    between atoms: _166  and  _167
REMARK   75  A    between atoms: _170  and  _172
REMARK   76  A    between atoms: _172  and  _173
REMARK   77  A    between atoms: _172  and  _175
REMARK   78  A    between atoms: _175  and  _176
REMARK   79  A    between atoms: _176  and  _177
REMARK   80  A    between atoms: _179  and  _181
REMARK   81  A    between atoms: _181  and  _182
REMARK   82  A    between atoms: _181  and  _184
REMARK   83  A    between atoms: _184  and  _185
REMARK   84  A    between atoms: _187  and  _189
REMARK   85  A    between atoms: _189  and  _190
REMARK   86  A    between atoms: _189  and  _192
REMARK   87  A    between atoms: _192  and  _193
REMARK   88  A    between atoms: _198  and  _200
REMARK   89  A    between atoms: _200  and  _201
REMARK   90  A    between atoms: _204  and  _206
REMARK   91  A    between atoms: _206  and  _207
REMARK   92  A    between atoms: _206  and  _209
REMARK   93  A    between atoms: _209  and  _210
REMARK   94  A    between atoms: _213  and  _215
REMARK   95  A    between atoms: _215  and  _216
REMARK   96  A    between atoms: _215  and  _218
REMARK   97  A    between atoms: _221  and  _223
REMARK   98  A    between atoms: _223  and  _224
REMARK   99  A    between atoms: _227  and  _228
REMARK  100  A    between atoms: _233  and  _235
REMARK  101  A    between atoms: _235  and  _236
REMARK  102  A    between atoms: _235  and  _238
REMARK  103  A    between atoms: _238  and  _239
REMARK  104  A    between atoms: _241  and  _243
REMARK  105  A    between atoms: _243  and  _244
REMARK  106  A    between atoms: _243  and  _246
REMARK  107  A    between atoms: _246  and  _247
REMARK  108  A    between atoms: _250  and  _252
REMARK  109  A    between atoms: _252  and  _253
REMARK  110  A    between atoms: _252  and  _255
REMARK  111  A    between atoms: _255  and  _256
REMARK  112  A    between atoms: _256  and  _257
REMARK  113  A    between atoms: _257  and  _258
REMARK  114  A    between atoms: _267  and  _269
REMARK  115  A    between atoms: _269  and  _270
REMARK  116  A    between atoms: _269  and  _272
REMARK  117  A    between atoms: _272  and  _273
REMARK  118  A    between atoms: _276  and  _278
REMARK  119  A    between atoms: _278  and  _279
REMARK  120  A    between atoms: _278  and  _281
REMARK  121  A    between atoms: _281  and  _282
REMARK  122  A    between atoms: _285  and  _286
REMARK  123  A    between atoms: _291  and  _293
REMARK  124  A    between atoms: _293  and  _294
REMARK  125  A    between atoms: _296  and  _298
REMARK  126  A    between atoms: _298  and  _299
REMARK  127  A    between atoms: _298  and  _301
REMARK  128  A    between atoms: _304  and  _306
REMARK  129  A    between atoms: _306  and  _307
REMARK  130  A    between atoms: _309  and  _311
REMARK  131  A    between atoms: _311  and  _312
REMARK  132  A    between atoms: _315  and  _317
REMARK  133  A    between atoms: _317  and  _318
REMARK  134  A    between atoms: _317  and  _320
REMARK  135  A    between atoms: _320  and  _321
REMARK  136  A    between atoms: _321  and  _322
REMARK  137  A    between atoms: _327  and  _329
REMARK  138  A    between atoms: _329  and  _330
REMARK  139  A    between atoms: _332  and  _334
REMARK  140  A    between atoms: _334  and  _335
REMARK  141  A    between atoms: _337  and  _339
REMARK  142  A    between atoms: _339  and  _340
REMARK  143  A    between atoms: _339  and  _342
REMARK  144  A    between atoms: _342  and  _343
REMARK  145  A    between atoms: _346  and  _348
REMARK  146  A    between atoms: _348  and  _349
REMARK  147  A    between atoms: _348  and  _351
REMARK  148  A    between atoms: _354  and  _356
REMARK  149  A    between atoms: _356  and  _357
REMARK  150  A    between atoms: _359  and  _361
REMARK  151  A    between atoms: _361  and  _362
REMARK  152  A    between atoms: _361  and  _364
REMARK  153  A    between atoms: _364  and  _365
REMARK  154  A    between atoms: _365  and  _366
REMARK  155  A    between atoms: _366  and  _367
REMARK  156  A    between atoms: _376  and  _378
REMARK  157  A    between atoms: _378  and  _379
REMARK  158  A    between atoms: _378  and  _381
REMARK  159  A    between atoms: _381  and  _382
REMARK  160  A    between atoms: _384  and  _386
REMARK  161  A    between atoms: _386  and  _387
REMARK  162  A    between atoms: _386  and  _389
REMARK  163  A    between atoms: _389  and  _390
REMARK  164  A    between atoms: _393  and  _395
REMARK  165  A    between atoms: _395  and  _396
REMARK  166  A    between atoms: _395  and  _398
REMARK  167  A    between atoms: _398  and  _399
REMARK  168  A    between atoms: _404  and  _405
REMARK  169  A    between atoms: _407  and  _409
REMARK  170  A    between atoms: _409  and  _410
REMARK  171  A    between atoms: _409  and  _412
REMARK  172  A    between atoms: _412  and  _413
REMARK  173  A    between atoms: _416  and  _418
REMARK  174  A    between atoms: _418  and  _419
REMARK  175  A    between atoms: _422  and  _424
REMARK  176  A    between atoms: _424  and  _425
REMARK  177  A    between atoms: _424  and  _427
REMARK  178  A    between atoms: _427  and  _428
REMARK  179  A    between atoms: _431  and  _433
REMARK  180  A    between atoms: _433  and  _434
REMARK  181  A    between atoms: _433  and  _436
REMARK  182  A    between atoms: _436  and  _437
REMARK  183  A    between atoms: _441  and  _442
REMARK  184  A    between atoms: _447  and  _449
REMARK  185  A    between atoms: _449  and  _450
REMARK  186  A    between atoms: _449  and  _452
REMARK  187  A    between atoms: _452  and  _453
REMARK  188  A    between atoms: _453  and  _454
REMARK  189  A    between atoms: _457  and  _459
REMARK  190  A    between atoms: _459  and  _460
REMARK  191  A    between atoms: _459  and  _462
REMARK  192  A    between atoms: _462  and  _463
REMARK  193  A    between atoms: _466  and  _468
REMARK  194  A    between atoms: _468  and  _469
REMARK  195  A    between atoms: _468  and  _471
REMARK  196  A    between atoms: _471  and  _472
REMARK  197  A    between atoms: _477  and  _479
REMARK  198  A    between atoms: _479  and  _480
REMARK  199  A    between atoms: _479  and  _482
REMARK  200  A    between atoms: _482  and  _483
REMARK  201  A    between atoms: _483  and  _484
REMARK  202  A    between atoms: _484  and  _485
REMARK  203  A    between atoms: _485  and  _486
REMARK  204  A    between atoms: _490  and  _492
REMARK  205  A    between atoms: _492  and  _493
REMARK  206  A    between atoms: _492  and  _495
REMARK  207  A    between atoms: _495  and  _496
REMARK                            x       y       z     vdW  Elec       q    Type
REMARK                         _______ _______ _______ _____ _____    ______ ____
ROOT
ATOM      1  CA  ALA A   1      11.030  -3.907   1.811  0.00  0.00    +0.133 C 
ATOM      2  CB  ALA A   1      12.132  -2.845   1.836  0.00  0.00    +0.027 C 
ENDROOT
BRANCH   1   3
ATOM      3  N   ALA A   1      11.614  -5.229   1.969  0.00  0.00    -0.239 NA
ATOM      4  H   ALA A   1      12.647  -5.327   2.033  0.00  0.00    +0.142 HD
ENDBRANCH   1   3
BRANCH   1   5
ATOM      5  C   ALA A   1      10.238  -3.810   0.515  0.00  0.00    +0.224 C 
ATOM      6  O   ALA A   1       9.374  -2.949   0.369  0.00  0.00    -0.287 OA
ENDBRANCH   1   5
TORSDOF 2
REMARK  Name = ../refined-set-2016/3g1d/3g1d_pocket.pdb
REMARK  207 active torsions:
REMARK  status: ('A' for Active; 'I' for Inactive)
REMARK    1  A    between atoms: _1  and  _3
REMARK    2  A    between atoms: _3  and  _4
REMARK    3  A    between atoms: _3  and  _6
REMARK    4  A    between atoms: _6  and  _7
REMARK    5  A    between atoms: _10  and  _12
REMARK    6  A    between atoms: _12  and  _13
REMARK    7  A    between atoms: _12  and  _15
REMARK    8  A    between atoms: _15  and  _16
REMARK    9  A    between atoms: _19  and  _21
REMARK   10  A    between atoms: _21  and  _22
REMARK   11  A    between atoms: _25  and  _27
REMARK   12  A    between atoms: _27  and  _28
REMARK   13  A    between atoms: _27  and  _30
REMARK   14  A    between atoms: _30  and  _31
REMARK   15  A    between atoms: _31  and  _32
REMARK   16  A    between atoms: _34  and  _36
REMARK   17  A    between atoms: _36  and  _37
REMARK   18  A    between atoms: _36  and  _39
REMARK   19  A    between atoms: _39  and  _40
REMARK   20  A    between atoms: _43  and  _45
REMARK   21  A    between atoms: _45  and  _46
REMARK   22  A    between atoms: _45  and  _48
REMARK   23  A    between atoms: _48  and  _49
REMARK   24  A    between atoms: _49  and  _50
REMARK   25  A    between atoms: _50  and  _51
REMARK   26  A    between atoms: _51  and  _52
REMARK   27  A    between atoms: _56  and  _58
REMARK   28  A    between atoms: _58  and  _59
REMARK   29  A    between atoms: _58  and  _61
REMARK   30  A    between atoms: _61  and  _62
REMARK   31  A    between atoms: _65  and  _67
REMARK   32  A    between atoms: _67  and  _68
REMARK   33  A    between atoms: _70  and  _72
REMARK   34  A    between atoms: _72  and  _73
REMARK   35  A    between atoms: _72  and  _75
REMARK   36  A    between atoms: _75  and  _76
REMARK   37  A    between atoms: _81  and  _82
REMARK   38  A    between atoms: _85  and  _86
REMARK   39  A    between atoms: _91  and  _93
REMARK   40  A    between atoms: _93  and  _94
REMARK   41  A    between atoms: _93  and  _96
REMARK   42  A    between atoms: _96  and  _97
REMARK   43  A    between atoms: _100  and  _102
REMARK   44  A    between atoms: _102  and  _103
REMARK   45  A    between atoms: _102  and  _105
REMARK   46  A    between atoms: _105  and  _106
REMARK   47  A    between atoms: _109  and  _111
REMARK   48  A    between atoms: _111  and  _112
REMARK   49  A    between atoms: _111  and  _114
REMARK   50  A    between atoms: _114  and  _115
REMARK   51  A    between atoms: _115  and  _116
REMARK   52  A    between atoms: _116  and  _117
REMARK   53  A    between atoms: _117  and  _118
REMARK   54  A    between atoms: _122  and  _124
REMARK   55  A    between atoms: _124  and  _125
REMARK   56  A    between atoms: _124  and  _127
REMARK   57  A    between atoms: _127  and  _128
REMARK   58  A    between atoms: _131  and  _133
REMARK   59  A    between atoms: _133  and  _134
REMARK   60  A    between atoms: _133  and  _136
REMARK   61  A    between atoms: _136  and  _137
REMARK   62  A    between atoms: _142  and  _144
REMARK   63  A    between atoms: _144  and  _145
REMARK   64  A    between atoms: _144  and  _147
REMARK   65  A    between atoms: _147  and  _148
REMARK   66  A    between atoms: _151  and  _153
REMARK   67  A    between atoms: _153  and  _154
REMARK   68  A    between atoms: _153  and  _156
REMARK   69  A    between atoms: _156  and  _157
REMARK   70  A    between atoms: _160  and  _162
REMARK   71  A    between atoms: _162  and  _163
REMARK   72  A    between atoms: _162  and  _165
REMARK   73  A    between atoms: _165  and  _166
REMARK   74  A    between atoms: _166  and  _167
REMARK   75  A    between atoms: _170  and  _172
REMARK   76  A    between atoms: _172  and  _173
REMARK   77  A    between atoms: _172  and  _175
REMARK   78  A    between atoms: _175  and  _176
REMARK   79  A    between atoms: _176  and  _177
REMARK   80  A    between atoms: _179  and  _181
REMARK   81  A    between atoms: _181  and  _182
REMARK   82  A    between atoms: _181  and  _184
REMARK   83  A    between atoms: _184  and  _185
REMARK   84  A    between atoms: _187  and  _189
REMARK   85  A    between atoms: _189  and  _190
REMARK   86  A    between atoms: _189  and  _192
REMARK   87  A    between atoms: _192  and  _193
REMARK   88  A    between atoms: _198  and  _200
REMARK   89  A    between atoms: _200  and  _201
REMARK   90  A    between atoms: _204  and  _206
REMARK   91  A    between atoms: _206  and  _207
REMARK   92  A    between atoms: _206  and  _209
REMARK   93  A    between atoms: _209  and  _210
REMARK   94  A    between atoms: _213  and  _215
REMARK   95  A    between atoms: _215  and  _216
REMARK   96  A    between atoms: _215  and  _218
REMARK   97  A    between atoms: _221  and  _223
REMARK   98  A    between atoms: _223  and  _224
REMARK   99  A    between atoms: _227  and  _228
REMARK  100  A    between atoms: _233  and  _235
REMARK  101  A    between atoms: _235  and  _236
REMARK  102  A    between atoms: _235  and  _238
REMARK  103  A    between atoms: _238  and  _239
REMARK  104  A    between atoms: _241  and  _243
REMARK  105  A    between atoms: _243  and  _244
REMARK  106  A    between atoms: _243  and  _246
REMARK  107  A    between atoms: _246  and  _247
REMARK  108  A    between atoms: _250  and  _252
REMARK  109  A    between atoms: _252  and  _253
REMARK  110  A    between atoms: _252  and  _255
REMARK  111  A    between atoms: _255  and  _256
REMARK  112  A    between atoms: _256  and  _257
REMARK  113  A    between atoms: _257  and  _258
REMARK  114  A    between atoms: _267  and  _269
REMARK  115  A    between atoms: _269  and  _270
REMARK  116  A    between atoms: _269  and  _272
REMARK  117  A    between atoms: _272  and  _273
REMARK  118  A    between atoms: _276  and  _278
REMARK  119  A    between atoms: _278  and  _279
REMARK  120  A    between atoms: _278  and  _281
REMARK  121  A    between atoms: _281  and  _282
REMARK  122  A    between atoms: _285  and  _286
REMARK  123  A    between atoms: _291  and  _293
REMARK  124  A    between atoms: _293  and  _294
REMARK  125  A    between atoms: _296  and  _298
REMARK  126  A    between atoms: _298  and  _299
REMARK  127  A    between atoms: _298  and  _301
REMARK  128  A    between atoms: _304  and  _306
REMARK  129  A    between atoms: _306  and  _307
REMARK  130  A    between atoms: _309  and  _311
REMARK  131  A    between atoms: _311  and  _312
REMARK  132  A    between atoms: _315  and  _317
REMARK  133  A    between atoms: _317  and  _318
REMARK  134  A    between atoms: _317  and  _320
REMARK  135  A    between atoms: _320  and  _321
REMARK  136  A    between atoms: _321  and  _322
REMARK  137  A    between atoms: _327  and  _329
REMARK  138  A    between atoms: _329  and  _330
REMARK  139  A    between atoms: _332  and  _334
REMARK  140  A    between atoms: _334  and  _335
REMARK  141  A    between atoms: _337  and  _339
REMARK  142  A    between atoms: _339  and  _340
REMARK  143  A    between atoms: _339  and  _342
REMARK  144  A    between atoms: _342  and  _343
REMARK  145  A    between atoms: _346  and  _348
REMARK  146  A    between atoms: _348  and  _349
REMARK  147  A    between atoms: _348  and  _351
REMARK  148  A    between atoms: _354  and  _356
REMARK  149  A    between atoms: _356  and  _357
REMARK  150  A    between atoms: _359  and  _361
REMARK  151  A    between atoms: _361  and  _362
REMARK  152  A    between atoms: _361  and  _364
REMARK  153  A    between atoms: _364  and  _365
REMARK  154  A    between atoms: _365  and  _366
REMARK  155  A    between atoms: _366  and  _367
REMARK  156  A    between atoms: _376  and  _378
REMARK  157  A    between atoms: _378  and  _379
REMARK  158  A    between atoms: _378  and  _381
REMARK  159  A    between atoms: _381  and  _382
REMARK  160  A    between atoms: _384  and  _386
REMARK  161  A    between atoms: _386  and  _387
REMARK  162  A    between atoms: _386  and  _389
REMARK  163  A    between atoms: _389  and  _390
REMARK  164  A    between atoms: _393  and  _395
REMARK  165  A    between atoms: _395  and  _396
REMARK  166  A    between atoms: _395  and  _398
REMARK  167  A    between atoms: _398  and  _399
REMARK  168  A    between atoms: _404  and  _405
REMARK  169  A    between atoms: _407  and  _409
REMARK  170  A    between atoms: _409  and  _410
REMARK  171  A    between atoms: _409  and  _412
REMARK  172  A    between atoms: _412  and  _413
REMARK  173  A    between atoms: _416  and  _418
REMARK  174  A    between atoms: _418  and  _419
REMARK  175  A    between atoms: _422  and  _424
REMARK  176  A    between atoms: _424  and  _425
REMARK  177  A    between atoms: _424  and  _427
REMARK  178  A    between atoms: _427  and  _428
REMARK  179  A    between atoms: _431  and  _433
REMARK  180  A    between atoms: _433  and  _434
REMARK  181  A    between atoms: _433  and  _436
REMARK  182  A    between atoms: _436  and  _437
REMARK  183  A    between atoms: _441  and  _442
REMARK  184  A    between atoms: _447  and  _449
REMARK  185  A    between atoms: _449  and  _450
REMARK  186  A    between atoms: _449  and  _452
REMARK  187  A    between atoms: _452  and  _453
REMARK  188  A    between atoms: _453  and  _454
REMARK  189  A    between atoms: _457  and  _459
REMARK  190  A    between atoms: _459  and  _460
REMARK  191  A    between atoms: _459  and  _462
REMARK  192  A    between atoms: _462  and  _463
REMARK  193  A    between atoms: _466  and  _468
REMARK  194  A    between atoms: _468  and  _469
REMARK  195  A    between atoms: _468  and  _471
REMARK  196  A    between atoms: _471  and  _472
REMARK  197  A    between atoms: _477  and  _479
REMARK  198  A    between atoms: _479  and  _480
REMARK  199  A    between atoms: _479  and  _482
REMARK  200  A    between atoms: _482  and  _483
REMARK  201  A    between atoms: _483  and  _484
REMARK  202  A    between atoms: _484  and  _485
REMARK  203  A    between atoms: _485  and  _486
REMARK  204  A    between atoms: _490  and  _492
REMARK  205  A    between atoms: _492  and  _493
REMARK  206  A    between atoms: _492  and  _495
REMARK  207  A    between atoms: _495  and  _496
REMARK                            x       y       z     vdW  Elec       q    Type
REMARK                         _______ _______ _______ _____ _____    ______ ____
ROOT
ATOM      1  CA  ILE A   1       6.935  -0.598   1.939  0.00  0.00    +0.133 C 
ENDROOT
BRANCH   1   2
ATOM      2  N   ILE A   1       6.424  -1.953   1.754  0.00  0.00    -0.239 NA
ATOM      3  H   ILE A   1       6.999  -2.767   2.051  0.00  0.00    +0.142 HD
ENDBRANCH   1   2
BRANCH   1   4
ATOM      4  CB  ILE A   1       8.201  -0.610   2.810  0.00  0.00    +0.023 C 
ATOM      5  CG2 ILE A   1       8.818   0.780   2.865  0.00  0.00    +0.002 C 
BRANCH   4   6
ATOM      6  CG1 ILE A   1       7.839  -1.082   4.222  0.00  0.00    +0.002 C 
ATOM      7  CD1 ILE A   1       9.036  -1.360   5.118  0.00  0.00    +0.000 C 
ENDBRANCH   4   6
ENDBRANCH   1   4
BRANCH   1   8
ATOM      8  C   ILE A   1       7.235   0.148   0.650  0.00  0.00    +0.224 C 
ATOM      9  O   ILE A   1       6.839   1.308   0.491  0.00  0.00    -0.287 OA
ENDBRANCH   1   8
TORSDOF 4
REMARK  Name = ../refined-set-2016/3g1d/3g1d_pocket.pdb
REMARK  207 active torsions:
REMARK  status: ('A' for Active; 'I' for Inactive)
REMARK    1  A    between atoms: _1  and  _3
REMARK    2  A    between atoms: _3  and  _4
REMARK    3  A    between atoms: _3  and  _6
REMARK    4  A    between atoms: _6  and  _7
REMARK    5  A    between atoms: _10  and  _12
REMARK    6  A    between atoms: _12  and  _13
REMARK    7  A    between atoms: _12  and  _15
REMARK    8  A    between atoms: _15  and  _16
REMARK    9  A    between atoms: _19  and  _21
REMARK   10  A    between atoms: _21  and  _22
REMARK   11  A    between atoms: _25  and  _27
REMARK   12  A    between atoms: _27  and  _28
REMARK   13  A    between atoms: _27  and  _30
REMARK   14  A    between atoms: _30  and  _31
REMARK   15  A    between atoms: _31  and  _32
REMARK   16  A    between atoms: _34  and  _36
REMARK   17  A    between atoms: _36  and  _37
REMARK   18  A    between atoms: _36  and  _39
REMARK   19  A    between atoms: _39  and  _40
REMARK   20  A    between atoms: _43  and  _45
REMARK   21  A    between atoms: _45  and  _46
REMARK   22  A    between atoms: _45  and  _48
REMARK   23  A    between atoms: _48  and  _49
REMARK   24  A    between atoms: _49  and  _50
REMARK   25  A    between atoms: _50  and  _51
REMARK   26  A    between atoms: _51  and  _52
REMARK   27  A    between atoms: _56  and  _58
REMARK   28  A    between atoms: _58  and  _59
REMARK   29  A    between atoms: _58  and  _61
REMARK   30  A    between atoms: _61  and  _62
REMARK   31  A    between atoms: _65  and  _67
REMARK   32  A    between atoms: _67  and  _68
REMARK   33  A    between atoms: _70  and  _72
REMARK   34  A    between atoms: _72  and  _73
REMARK   35  A    between atoms: _72  and  _75
REMARK   36  A    between atoms: _75  and  _76
REMARK   37  A    between atoms: _81  and  _82
REMARK   38  A    between atoms: _85  and  _86
REMARK   39  A    between atoms: _91  and  _93
REMARK   40  A    between atoms: _93  and  _94
REMARK   41  A    between atoms: _93  and  _96
REMARK   42  A    between atoms: _96  and  _97
REMARK   43  A    between atoms: _100  and  _102
REMARK   44  A    between atoms: _102  and  _103
REMARK   45  A    between atoms: _102  and  _105
REMARK   46  A    between atoms: _105  and  _106
REMARK   47  A    between atoms: _109  and  _111
REMARK   48  A    between atoms: _111  and  _112
REMARK   49  A    between atoms: _111  and  _114
REMARK   50  A    between atoms: _114  and  _115
REMARK   51  A    between atoms: _115  and  _116
REMARK   52  A    between atoms: _116  and  _117
REMARK   53  A    between atoms: _117  and  _118
REMARK   54  A    between atoms: _122  and  _124
REMARK   55  A    between atoms: _124  and  _125
REMARK   56  A    between atoms: _124  and  _127
REMARK   57  A    between atoms: _127  and  _128
REMARK   58  A    between atoms: _131  and  _133
REMARK   59  A    between atoms: _133  and  _134
REMARK   60  A    between atoms: _133  and  _136
REMARK   61  A    between atoms: _136  and  _137
REMARK   62  A    between atoms: _142  and  _144
REMARK   63  A    between atoms: _144  and  _145
REMARK   64  A    between atoms: _144  and  _147
REMARK   65  A    between atoms: _147  and  _148
REMARK   66  A    between atoms: _151  and  _153
REMARK   67  A    between atoms: _153  and  _154
REMARK   68  A    between atoms: _153  and  _156
REMARK   69  A    between atoms: _156  and  _157
REMARK   70  A    between atoms: _160  and  _162
REMARK   71  A    between atoms: _162  and  _163
REMARK   72  A    between atoms: _162  and  _165
REMARK   73  A    between atoms: _165  and  _166
REMARK   74  A    between atoms: _166  and  _167
REMARK   75  A    between atoms: _170  and  _172
REMARK   76  A    between atoms: _172  and  _173
REMARK   77  A    between atoms: _172  and  _175
REMARK   78  A    between atoms: _175  and  _176
REMARK   79  A    between atoms: _176  and  _177
REMARK   80  A    between atoms: _179  and  _181
REMARK   81  A    between atoms: _181  and  _182
REMARK   82  A    between atoms: _181  and  _184
REMARK   83  A    between atoms: _184  and  _185
REMARK   84  A    between atoms: _187  and  _189
REMARK   85  A    between atoms: _189  and  _190
REMARK   86  A    between atoms: _189  and  _192
REMARK   87  A    between atoms: _192  and  _193
REMARK   88  A    between atoms: _198  and  _200
REMARK   89  A    between atoms: _200  and  _201
REMARK   90  A    between atoms: _204  and  _206
REMARK   91  A    between atoms: _206  and  _207
REMARK   92  A    between atoms: _206  and  _209
REMARK   93  A    between atoms: _209  and  _210
REMARK   94  A    between atoms: _213  and  _215
REMARK   95  A    between atoms: _215  and  _216
REMARK   96  A    between atoms: _215  and  _218
REMARK   97  A    between atoms: _221  and  _223
REMARK   98  A    between atoms: _223  and  _224
REMARK   99  A    between atoms: _227  and  _228
REMARK  100  A    between atoms: _233  and  _235
REMARK  101  A    between atoms: _235  and  _236
REMARK  102  A    between atoms: _235  and  _238
REMARK  103  A    between atoms: _238  and  _239
REMARK  104  A    between atoms: _241  and  _243
REMARK  105  A    between atoms: _243  and  _244
REMARK  106  A    between atoms: _243  and  _246
REMARK  107  A    between atoms: _246  and  _247
REMARK  108  A    between atoms: _250  and  _252
REMARK  109  A    between atoms: _252  and  _253
REMARK  110  A    between atoms: _252  and  _255
REMARK  111  A    between atoms: _255  and  _256
REMARK  112  A    between atoms: _256  and  _257
REMARK  113  A    between atoms: _257  and  _258
REMARK  114  A    between atoms: _267  and  _269
REMARK  115  A    between atoms: _269  and  _270
REMARK  116  A    between atoms: _269  and  _272
REMARK  117  A    between atoms: _272  and  _273
REMARK  118  A    between atoms: _276  and  _278
REMARK  119  A    between atoms: _278  and  _279
REMARK  120  A    between atoms: _278  and  _281
REMARK  121  A    between atoms: _281  and  _282
REMARK  122  A    between atoms: _285  and  _286
REMARK  123  A    between atoms: _291  and  _293
REMARK  124  A    between atoms: _293  and  _294
REMARK  125  A    between atoms: _296  and  _298
REMARK  126  A    between atoms: _298  and  _299
REMARK  127  A    between atoms: _298  and  _301
REMARK  128  A    between atoms: _304  and  _306
REMARK  129  A    between atoms: _306  and  _307
REMARK  130  A    between atoms: _309  and  _311
REMARK  131  A    between atoms: _311  and  _312
REMARK  132  A    between atoms: _315  and  _317
REMARK  133  A    between atoms: _317  and  _318
REMARK  134  A    between atoms: _317  and  _320
REMARK  135  A    between atoms: _320  and  _321
REMARK  136  A    between atoms: _321  and  _322
REMARK  137  A    between atoms: _327  and  _329
REMARK  138  A    between atoms: _329  and  _330
REMARK  139  A    between atoms: _332  and  _334
REMARK  140  A    between atoms: _334  and  _335
REMARK  141  A    between atoms: _337  and  _339
REMARK  142  A    between atoms: _339  and  _340
REMARK  143  A    between atoms: _339  and  _342
REMARK  144  A    between atoms: _342  and  _343
REMARK  145  A    between atoms: _346  and  _348
REMARK  146  A    between atoms: _348  and  _349
REMARK  147  A    between atoms: _348  and  _351
REMARK  148  A    between atoms: _354  and  _356
REMARK  149  A    between atoms: _356  and  _357
REMARK  150  A    between atoms: _359  and  _361
REMARK  151  A    between atoms: _361  and  _362
REMARK  152  A    between atoms: _361  and  _364
REMARK  153  A    between atoms: _364  and  _365
REMARK  154  A    between atoms: _365  and  _366
REMARK  155  A    between atoms: _366  and  _367
REMARK  156  A    between atoms: _376  and  _378
REMARK  157  A    between atoms: _378  and  _379
REMARK  158  A    between atoms: _378  and  _381
REMARK  159  A    between atoms: _381  and  _382
REMARK  160  A    between atoms: _384  and  _386
REMARK  161  A    between atoms: _386  and  _387
REMARK  162  A    between atoms: _386  and  _389
REMARK  163  A    between atoms: _389  and  _390
REMARK  164  A    between atoms: _393  and  _395
REMARK  165  A    between atoms: _395  and  _396
REMARK  166  A    between atoms: _395  and  _398
REMARK  167  A    between atoms: _398  and  _399
REMARK  168  A    between atoms: _404  and  _405
REMARK  169  A    between atoms: _407  and  _409
REMARK  170  A    between atoms: _409  and  _410
REMARK  171  A    between atoms: _409  and  _412
REMARK  172  A    between atoms: _412  and  _413
REMARK  173  A    between atoms: _416  and  _418
REMARK  174  A    between atoms: _418  and  _419
REMARK  175  A    between atoms: _422  and  _424
REMARK  176  A    between atoms: _424  and  _425
REMARK  177  A    between atoms: _424  and  _427
REMARK  178  A    between atoms: _427  and  _428
REMARK  179  A    between atoms: _431  and  _433
REMARK  180  A    between atoms: _433  and  _434
REMARK  181  A    between atoms: _433  and  _436
REMARK  182  A    between atoms: _436  and  _437
REMARK  183  A    between atoms: _441  and  _442
REMARK  184  A    between atoms: _447  and  _449
REMARK  185  A    between atoms: _449  and  _450
REMARK  186  A    between atoms: _449  and  _452
REMARK  187  A    between atoms: _452  and  _453
REMARK  188  A    between atoms: _453  and  _454
REMARK  189  A    between atoms: _457  and  _459
REMARK  190  A    between atoms: _459  and  _460
REMARK  191  A    between atoms: _459  and  _462
REMARK  192  A    between atoms: _462  and  _463
REMARK  193  A    between atoms: _466  and  _468
REMARK  194  A    between atoms: _468  and  _469
REMARK  195  A    between atoms: _468  and  _471
REMARK  196  A    between atoms: _471  and  _472
REMARK  197  A    between atoms: _477  and  _479
REMARK  198  A    between atoms: _479  and  _480
REMARK  199  A    between atoms: _479  and  _482
REMARK  200  A    between atoms: _482  and  _483
REMARK  201  A    between atoms: _483  and  _484
REMARK  202  A    between atoms: _484  and  _485
REMARK  203  A    between atoms: _485  and  _486
REMARK  204  A    between atoms: _490  and  _492
REMARK  205  A    between atoms: _492  and  _493
REMARK  206  A    between atoms: _492  and  _495
REMARK  207  A    between atoms: _495  and  _496
REMARK                            x       y       z     vdW  Elec       q    Type
REMARK                         _______ _______ _______ _____ _____    ______ ____
ROOT
ATOM      1  C   SER A   4      21.487   1.567  -1.276  0.00  0.00    +0.243 C 
ATOM      2  N   THR A   5      20.798   0.491  -0.909  0.00  0.00    -0.295 N 
ATOM      3  H   THR A   5      20.311   0.502   0.010  0.00  0.00    +0.150 HD
ATOM      4  O   SER A   4      22.084   1.654  -2.350  0.00  0.00    -0.273 OA
ENDROOT
BRANCH   2   5
ATOM      5  CA  THR A   5      20.696  -0.704  -1.739  0.00  0.00    +0.176 C 
BRANCH   5   6
ATOM      6  C   THR A   5      19.888  -0.567  -3.034  0.00  0.00    +0.243 C 
ATOM      7  N   ARG A   6      19.134   0.518  -3.172  0.00  0.00    -0.298 N 
ATOM      8  H   ARG A   6      19.103   1.217  -2.403  0.00  0.00    +0.150 HD
ATOM      9  O   THR A   5      19.936  -1.451  -3.890  0.00  0.00    -0.273 OA
BRANCH   7  10
ATOM     10  CA  ARG A   6      18.347   0.750  -4.382  0.00  0.00    +0.137 C 
BRANCH  10  11
ATOM     11  C   ARG A   6      18.527   2.198  -4.833  0.00  0.00    +0.227 C 
ATOM     12  O   ARG A   6      17.673   3.049  -4.576  0.00  0.00    -0.286 OA
ENDBRANCH  10  11
BRANCH  10  13
ATOM     13  CB  ARG A   6      16.860   0.466  -4.128  0.00  0.00    +0.031 C 
BRANCH  13  14
ATOM     14  CG  ARG A   6      16.586  -0.960  -3.683  0.00  0.00    +0.045 C 
BRANCH  14  15
ATOM     15  CD  ARG A   6      15.104  -1.301  -3.644  0.00  0.00    +0.174 C 
BRANCH  15  16
ATOM     16  NE  ARG A   6      14.906  -2.525  -2.875  0.00  0.00    -0.265 N 
ATOM     17  CZ  ARG A   6      14.676  -2.551  -1.566  0.00  0.00    +0.342 C 
ATOM     18  NH2 ARG A   6      14.591  -1.417  -0.876  0.00  0.00    -0.292 N 
ATOM     19 HH21 ARG A   6      14.411  -1.444   0.148  0.00  0.00    +0.255 HD
ATOM     20 HH22 ARG A   6      14.705  -0.504  -1.360  0.00  0.00    +0.255 HD
ATOM     21  NH1 ARG A   6      14.577  -3.710  -0.938  0.00  0.00    -0.292 N 
ATOM     22 HH11 ARG A   6      14.397  -3.733   0.086  0.00  0.00    +0.255 HD
ATOM     23 HH12 ARG A   6      14.679  -4.599  -1.468  0.00  0.00    +0.255 HD
ATOM     24  HE  ARG A   6      14.947  -3.432  -3.382  0.00  0.00    +0.259 HD
ENDBRANCH  15  16
ENDBRANCH  14  15
ENDBRANCH  13  14
ENDBRANCH  10  13
ENDBRANCH   7  10
ENDBRANCH   5   6
BRANCH   5  25
ATOM     25  CB  THR A   5      20.110  -1.854  -0.917  0.00  0.00    +0.137 C 
ATOM     26  CG2 THR A   5      21.085  -2.268   0.180  0.00  0.00    +0.034 C 
BRANCH  25  27
ATOM     27  OG1 THR A   5      18.879  -1.425  -0.320  0.00  0.00    -0.382 OA
ATOM     28  HG1 THR A   5      18.496  -2.166   0.213  0.00  0.00    +0.210 HD
ENDBRANCH  25  27
ENDBRANCH   5  25
ENDBRANCH   2   5
BRANCH   1  29
ATOM     29  CA  SER A   4      21.512   2.711  -0.267  0.00  0.00    +0.178 C 
BRANCH  29  31
ATOM     30  C   PRO A   3      19.111   2.960   0.033  0.00  0.00    +0.241 C 
ATOM     31  N   SER A   4      20.300   2.653   0.545  0.00  0.00    -0.295 N 
ATOM     32  H   SER A   4      20.367   2.366   1.542  0.00  0.00    +0.150 HD
ATOM     33  O   PRO A   3      18.961   3.304  -1.138  0.00  0.00    -0.273 OA
BRANCH  30  37
ATOM     34  C   GLY A   2      17.338   4.987   2.099  0.00  0.00    +0.246 C 
ATOM     35  O   GLY A   2      18.430   5.086   2.656  0.00  0.00    -0.273 OA
ATOM     36  N   PRO A   3      17.050   3.963   1.278  0.00  0.00    -0.272 N 
ATOM     37  CA  PRO A   3      17.915   2.814   0.978  0.00  0.00    +0.152 C 
ATOM     38  CB  PRO A   3      16.918   1.794   0.452  0.00  0.00    +0.031 C 
ATOM     39  CG  PRO A   3      16.024   2.674  -0.391  0.00  0.00    +0.024 C 
ATOM     40  CD  PRO A   3      15.761   3.830   0.570  0.00  0.00    +0.094 C 
BRANCH  34  41
ATOM     41  CA  GLY A   2      16.292   6.075   2.295  0.00  0.00    +0.176 C 
BRANCH  41  44
ATOM     42  C   VAL A   1      15.636   7.175   4.370  0.00  0.00    +0.238 C 
ATOM     43  O   VAL A   1      14.451   6.862   4.242  0.00  0.00    -0.274 OA
ATOM     44  N   GLY A   2      16.582   6.846   3.495  0.00  0.00    -0.296 N 
ATOM     45  H   GLY A   2      17.561   7.149   3.674  0.00  0.00    +0.150 HD
BRANCH  42  46
ATOM     46  CA  VAL A   1      16.093   7.981   5.591  0.00  0.00    +0.145 C 
BRANCH  46  47
ATOM     47  CB  VAL A   1      15.971   7.075   6.843  0.00  0.00    +0.025 C 
ATOM     48  CG2 VAL A   1      16.327   7.855   8.099  0.00  0.00    +0.002 C 
ATOM     49  CG1 VAL A   1      16.902   5.864   6.696  0.00  0.00    +0.002 C 
ENDBRANCH  46  47
BRANCH  46  50
ATOM     50  N   VAL A   1      15.253   9.170   5.689  0.00  0.00    -0.238 NA
ATOM     51  H   VAL A   1      14.220   9.054   5.663  0.00  0.00    +0.142 HD
ENDBRANCH  46  50
ENDBRANCH  42  46
ENDBRANCH  41  44
ENDBRANCH  34  41
ENDBRANCH  30  37
ENDBRANCH  29  31
BRANCH  29  52
ATOM     52  CB  SER A   4      22.755   2.563   0.617  0.00  0.00    +0.166 C 
BRANCH  52  53
ATOM     53  OG  SER A   4      23.894   2.219  -0.163  0.00  0.00    -0.380 OA
ATOM     54  H   SER A   4      24.061   2.929  -0.832  0.00  0.00    +0.211 HD
ENDBRANCH  52  53
ENDBRANCH  29  52
ENDBRANCH   1  29
TORSDOF 20
REMARK  Name = ../refined-set-2016/3g1d/3g1d_pocket.pdb
REMARK  207 active torsions:
REMARK  status: ('A' for Active; 'I' for Inactive)
REMARK    1  A    between atoms: _1  and  _3
REMARK    2  A    between atoms: _3  and  _4
REMARK    3  A    between atoms: _3  and  _6
REMARK    4  A    between atoms: _6  and  _7
REMARK    5  A    between atoms: _10  and  _12
REMARK    6  A    between atoms: _12  and  _13
REMARK    7  A    between atoms: _12  and  _15
REMARK    8  A    between atoms: _15  and  _16
REMARK    9  A    between atoms: _19  and  _21
REMARK   10  A    between atoms: _21  and  _22
REMARK   11  A    between atoms: _25  and  _27
REMARK   12  A    between atoms: _27  and  _28
REMARK   13  A    between atoms: _27  and  _30
REMARK   14  A    between atoms: _30  and  _31
REMARK   15  A    between atoms: _31  and  _32
REMARK   16  A    between atoms: _34  and  _36
REMARK   17  A    between atoms: _36  and  _37
REMARK   18  A    between atoms: _36  and  _39
REMARK   19  A    between atoms: _39  and  _40
REMARK   20  A    between atoms: _43  and  _45
REMARK   21  A    between atoms: _45  and  _46
REMARK   22  A    between atoms: _45  and  _48
REMARK   23  A    between atoms: _48  and  _49
REMARK   24  A    between atoms: _49  and  _50
REMARK   25  A    between atoms: _50  and  _51
REMARK   26  A    between atoms: _51  and  _52
REMARK   27  A    between atoms: _56  and  _58
REMARK   28  A    between atoms: _58  and  _59
REMARK   29  A    between atoms: _58  and  _61
REMARK   30  A    between atoms: _61  and  _62
REMARK   31  A    between atoms: _65  and  _67
REMARK   32  A    between atoms: _67  and  _68
REMARK   33  A    between atoms: _70  and  _72
REMARK   34  A    between atoms: _72  and  _73
REMARK   35  A    between atoms: _72  and  _75
REMARK   36  A    between atoms: _75  and  _76
REMARK   37  A    between atoms: _81  and  _82
REMARK   38  A    between atoms: _85  and  _86
REMARK   39  A    between atoms: _91  and  _93
REMARK   40  A    between atoms: _93  and  _94
REMARK   41  A    between atoms: _93  and  _96
REMARK   42  A    between atoms: _96  and  _97
REMARK   43  A    between atoms: _100  and  _102
REMARK   44  A    between atoms: _102  and  _103
REMARK   45  A    between atoms: _102  and  _105
REMARK   46  A    between atoms: _105  and  _106
REMARK   47  A    between atoms: _109  and  _111
REMARK   48  A    between atoms: _111  and  _112
REMARK   49  A    between atoms: _111  and  _114
REMARK   50  A    between atoms: _114  and  _115
REMARK   51  A    between atoms: _115  and  _116
REMARK   52  A    between atoms: _116  and  _117
REMARK   53  A    between atoms: _117  and  _118
REMARK   54  A    between atoms: _122  and  _124
REMARK   55  A    between atoms: _124  and  _125
REMARK   56  A    between atoms: _124  and  _127
REMARK   57  A    between atoms: _127  and  _128
REMARK   58  A    between atoms: _131  and  _133
REMARK   59  A    between atoms: _133  and  _134
REMARK   60  A    between atoms: _133  and  _136
REMARK   61  A    between atoms: _136  and  _137
REMARK   62  A    between atoms: _142  and  _144
REMARK   63  A    between atoms: _144  and  _145
REMARK   64  A    between atoms: _144  and  _147
REMARK   65  A    between atoms: _147  and  _148
REMARK   66  A    between atoms: _151  and  _153
REMARK   67  A    between atoms: _153  and  _154
REMARK   68  A    between atoms: _153  and  _156
REMARK   69  A    between atoms: _156  and  _157
REMARK   70  A    between atoms: _160  and  _162
REMARK   71  A    between atoms: _162  and  _163
REMARK   72  A    between atoms: _162  and  _165
REMARK   73  A    between atoms: _165  and  _166
REMARK   74  A    between atoms: _166  and  _167
REMARK   75  A    between atoms: _170  and  _172
REMARK   76  A    between atoms: _172  and  _173
REMARK   77  A    between atoms: _172  and  _175
REMARK   78  A    between atoms: _175  and  _176
REMARK   79  A    between atoms: _176  and  _177
REMARK   80  A    between atoms: _179  and  _181
REMARK   81  A    between atoms: _181  and  _182
REMARK   82  A    between atoms: _181  and  _184
REMARK   83  A    between atoms: _184  and  _185
REMARK   84  A    between atoms: _187  and  _189
REMARK   85  A    between atoms: _189  and  _190
REMARK   86  A    between atoms: _189  and  _192
REMARK   87  A    between atoms: _192  and  _193
REMARK   88  A    between atoms: _198  and  _200
REMARK   89  A    between atoms: _200  and  _201
REMARK   90  A    between atoms: _204  and  _206
REMARK   91  A    between atoms: _206  and  _207
REMARK   92  A    between atoms: _206  and  _209
REMARK   93  A    between atoms: _209  and  _210
REMARK   94  A    between atoms: _213  and  _215
REMARK   95  A    between atoms: _215  and  _216
REMARK   96  A    between atoms: _215  and  _218
REMARK   97  A    between atoms: _221  and  _223
REMARK   98  A    between atoms: _223  and  _224
REMARK   99  A    between atoms: _227  and  _228
REMARK  100  A    between atoms: _233  and  _235
REMARK  101  A    between atoms: _235  and  _236
REMARK  102  A    between atoms: _235  and  _238
REMARK  103  A    between atoms: _238  and  _239
REMARK  104  A    between atoms: _241  and  _243
REMARK  105  A    between atoms: _243  and  _244
REMARK  106  A    between atoms: _243  and  _246
REMARK  107  A    between atoms: _246  and  _247
REMARK  108  A    between atoms: _250  and  _252
REMARK  109  A    between atoms: _252  and  _253
REMARK  110  A    between atoms: _252  and  _255
REMARK  111  A    between atoms: _255  and  _256
REMARK  112  A    between atoms: _256  and  _257
REMARK  113  A    between atoms: _257  and  _258
REMARK  114  A    between atoms: _267  and  _269
REMARK  115  A    between atoms: _269  and  _270
REMARK  116  A    between atoms: _269  and  _272
REMARK  117  A    between atoms: _272  and  _273
REMARK  118  A    between atoms: _276  and  _278
REMARK  119  A    between atoms: _278  and  _279
REMARK  120  A    between atoms: _278  and  _281
REMARK  121  A    between atoms: _281  and  _282
REMARK  122  A    between atoms: _285  and  _286
REMARK  123  A    between atoms: _291  and  _293
REMARK  124  A    between atoms: _293  and  _294
REMARK  125  A    between atoms: _296  and  _298
REMARK  126  A    between atoms: _298  and  _299
REMARK  127  A    between atoms: _298  and  _301
REMARK  128  A    between atoms: _304  and  _306
REMARK  129  A    between atoms: _306  and  _307
REMARK  130  A    between atoms: _309  and  _311
REMARK  131  A    between atoms: _311  and  _312
REMARK  132  A    between atoms: _315  and  _317
REMARK  133  A    between atoms: _317  and  _318
REMARK  134  A    between atoms: _317  and  _320
REMARK  135  A    between atoms: _320  and  _321
REMARK  136  A    between atoms: _321  and  _322
REMARK  137  A    between atoms: _327  and  _329
REMARK  138  A    between atoms: _329  and  _330
REMARK  139  A    between atoms: _332  and  _334
REMARK  140  A    between atoms: _334  and  _335
REMARK  141  A    between atoms: _337  and  _339
REMARK  142  A    between atoms: _339  and  _340
REMARK  143  A    between atoms: _339  and  _342
REMARK  144  A    between atoms: _342  and  _343
REMARK  145  A    between atoms: _346  and  _348
REMARK  146  A    between atoms: _348  and  _349
REMARK  147  A    between atoms: _348  and  _351
REMARK  148  A    between atoms: _354  and  _356
REMARK  149  A    between atoms: _356  and  _357
REMARK  150  A    between atoms: _359  and  _361
REMARK  151  A    between atoms: _361  and  _362
REMARK  152  A    between atoms: _361  and  _364
REMARK  153  A    between atoms: _364  and  _365
REMARK  154  A    between atoms: _365  and  _366
REMARK  155  A    between atoms: _366  and  _367
REMARK  156  A    between atoms: _376  and  _378
REMARK  157  A    between atoms: _378  and  _379
REMARK  158  A    between atoms: _378  and  _381
REMARK  159  A    between atoms: _381  and  _382
REMARK  160  A    between atoms: _384  and  _386
REMARK  161  A    between atoms: _386  and  _387
REMARK  162  A    between atoms: _386  and  _389
REMARK  163  A    between atoms: _389  and  _390
REMARK  164  A    between atoms: _393  and  _395
REMARK  165  A    between atoms: _395  and  _396
REMARK  166  A    between atoms: _395  and  _398
REMARK  167  A    between atoms: _398  and  _399
REMARK  168  A    between atoms: _404  and  _405
REMARK  169  A    between atoms: _407  and  _409
REMARK  170  A    between atoms: _409  and  _410
REMARK  171  A    between atoms: _409  and  _412
REMARK  172  A    between atoms: _412  and  _413
REMARK  173  A    between atoms: _416  and  _418
REMARK  174  A    between atoms: _418  and  _419
REMARK  175  A    between atoms: _422  and  _424
REMARK  176  A    between atoms: _424  and  _425
REMARK  177  A    between atoms: _424  and  _427
REMARK  178  A    between atoms: _427  and  _428
REMARK  179  A    between atoms: _431  and  _433
REMARK  180  A    between atoms: _433  and  _434
REMARK  181  A    between atoms: _433  and  _436
REMARK  182  A    between atoms: _436  and  _437
REMARK  183  A    between atoms: _441  and  _442
REMARK  184  A    between atoms: _447  and  _449
REMARK  185  A    between atoms: _449  and  _450
REMARK  186  A    between atoms: _449  and  _452
REMARK  187  A    between atoms: _452  and  _453
REMARK  188  A    between atoms: _453  and  _454
REMARK  189  A    between atoms: _457  and  _459
REMARK  190  A    between atoms: _459  and  _460
REMARK  191  A    between atoms: _459  and  _462
REMARK  192  A    between atoms: _462  and  _463
REMARK  193  A    between atoms: _466  and  _468
REMARK  194  A    between atoms: _468  and  _469
REMARK  195  A    between atoms: _468  and  _471
REMARK  196  A    between atoms: _471  and  _472
REMARK  197  A    between atoms: _477  and  _479
REMARK  198  A    between atoms: _479  and  _480
REMARK  199  A    between atoms: _479  and  _482
REMARK  200  A    between atoms: _482  and  _483
REMARK  201  A    between atoms: _483  and  _484
REMARK  202  A    between atoms: _484  and  _485
REMARK  203  A    between atoms: _485  and  _486
REMARK  204  A    between atoms: _490  and  _492
REMARK  205  A    between atoms: _492  and  _493
REMARK  206  A    between atoms: _492  and  _495
REMARK  207  A    between atoms: _495  and  _496
REMARK                            x       y       z     vdW  Elec       q    Type
REMARK                         _______ _______ _______ _____ _____    ______ ____
ROOT
ATOM      1  CA  VAL A   5      26.252   0.680   2.684  0.00  0.00    +0.149 C 
ENDROOT
BRANCH   1   3
ATOM      2  C   GLY A   4      24.012  -0.270   2.817  0.00  0.00    +0.243 C 
ATOM      3  N   VAL A   5      24.943   0.543   3.302  0.00  0.00    -0.297 N 
ATOM      4  H   VAL A   5      24.729   1.101   4.153  0.00  0.00    +0.150 HD
ATOM      5  O   GLY A   4      24.170  -0.947   1.805  0.00  0.00    -0.273 OA
BRANCH   2   6
ATOM      6  CA  GLY A   4      22.712  -0.313   3.583  0.00  0.00    +0.176 C 
BRANCH   6   8
ATOM      7  C   PRO A   3      21.854   1.798   4.349  0.00  0.00    +0.241 C 
ATOM      8  N   GLY A   4      22.628   0.743   4.576  0.00  0.00    -0.295 N 
ATOM      9  H   GLY A   4      23.171   0.674   5.460  0.00  0.00    +0.150 HD
ATOM     10  O   PRO A   3      21.187   1.923   3.316  0.00  0.00    -0.273 OA
BRANCH   7  13
ATOM     11  C   SER A   2      21.902   5.116   4.416  0.00  0.00    +0.246 C 
ATOM     12  N   PRO A   3      21.200   4.097   4.941  0.00  0.00    -0.272 N 
ATOM     13  CA  PRO A   3      21.818   2.868   5.441  0.00  0.00    +0.152 C 
ATOM     14  CB  PRO A   3      20.907   2.484   6.593  0.00  0.00    +0.031 C 
ATOM     15  CG  PRO A   3      19.566   2.848   6.065  0.00  0.00    +0.024 C 
ATOM     16  CD  PRO A   3      19.780   4.169   5.340  0.00  0.00    +0.094 C 
ATOM     17  O   SER A   2      23.130   5.092   4.325  0.00  0.00    -0.273 OA
BRANCH  11  18
ATOM     18  CA  SER A   2      21.109   6.315   3.931  0.00  0.00    +0.178 C 
BRANCH  18  21
ATOM     19  C   ILE A   1      20.425   8.437   4.853  0.00  0.00    +0.238 C 
ATOM     20  O   ILE A   1      19.232   8.137   4.737  0.00  0.00    -0.274 OA
ATOM     21  N   SER A   2      21.407   7.601   4.546  0.00  0.00    -0.295 N 
ATOM     22  H   SER A   2      22.393   7.864   4.745  0.00  0.00    +0.150 HD
BRANCH  19  23
ATOM     23  CA  ILE A   1      20.830   9.813   5.373  0.00  0.00    +0.145 C 
BRANCH  23  24
ATOM     24  N   ILE A   1      19.772  10.728   4.962  0.00  0.00    -0.238 NA
ATOM     25  H   ILE A   1      18.805  10.588   5.318  0.00  0.00    +0.142 HD
ENDBRANCH  23  24
BRANCH  23  26
ATOM     26  CB  ILE A   1      21.065   9.832   6.911  0.00  0.00    +0.025 C 
ATOM     27  CG2 ILE A   1      21.481  11.248   7.342  0.00  0.00    +0.002 C 
BRANCH  26  28
ATOM     28  CG1 ILE A   1      19.814   9.394   7.673  0.00  0.00    +0.002 C 
ATOM     29  CD1 ILE A   1      20.058   9.249   9.190  0.00  0.00    +0.000 C 
ENDBRANCH  26  28
ENDBRANCH  23  26
ENDBRANCH  19  23
ENDBRANCH  18  21
BRANCH  18  30
ATOM     30  CB  SER A   2      21.307   6.464   2.421  0.00  0.00    +0.166 C 
BRANCH  30  31
ATOM     31  OG  SER A   2      21.011   5.276   1.718  0.00  0.00    -0.380 OA
ATOM     32  H   SER A   2      20.067   5.025   1.879  0.00  0.00    +0.211 HD
ENDBRANCH  30  31
ENDBRANCH  18  30
ENDBRANCH  11  18
ENDBRANCH   7  13
ENDBRANCH   6   8
ENDBRANCH   2   6
ENDBRANCH   1   3
BRANCH   1  33
ATOM     33  C   VAL A   5      27.186  -0.386   3.250  0.00  0.00    +0.241 C 
ATOM     34  O   VAL A   5      27.286  -0.558   4.469  0.00  0.00    -0.273 OA
ATOM     35  N   GLY A   6      27.865  -1.105   2.364  0.00  0.00    -0.295 N 
ATOM     36  H   GLY A   6      27.737  -0.933   1.346  0.00  0.00    +0.150 HD
BRANCH  35  37
ATOM     37  CA  GLY A   6      28.784  -2.129   2.818  0.00  0.00    +0.176 C 
BRANCH  37  38
ATOM     38  C   GLY A   6      28.159  -3.501   2.964  0.00  0.00    +0.243 C 
ATOM     39  N   ALA A   7      27.920  -3.907   4.208  0.00  0.00    -0.297 N 
ATOM     40  H   ALA A   7      28.142  -3.269   4.999  0.00  0.00    +0.150 HD
ATOM     41  O   GLY A   6      27.890  -4.180   1.974  0.00  0.00    -0.273 OA
BRANCH  39  42
ATOM     42  CA  ALA A   7      27.356  -5.219   4.495  0.00  0.00    +0.149 C 
ATOM     43  CB  ALA A   7      26.957  -5.305   5.972  0.00  0.00    +0.031 C 
BRANCH  42  44
ATOM     44  C   ALA A   7      26.168  -5.596   3.615  0.00  0.00    +0.241 C 
ATOM     45  N   GLN A   8      25.258  -4.652   3.400  0.00  0.00    -0.297 N 
ATOM     46  H   GLN A   8      25.395  -3.707   3.811  0.00  0.00    +0.150 HD
ATOM     47  O   ALA A   7      26.083  -6.727   3.136  0.00  0.00    -0.273 OA
BRANCH  45  48
ATOM     48  CA  GLN A   8      24.069  -4.919   2.596  0.00  0.00    +0.149 C 
BRANCH  48  49
ATOM     49  C   GLN A   8      24.254  -4.757   1.083  0.00  0.00    +0.241 C 
ATOM     50  N   GLY A   9      25.420  -4.280   0.653  0.00  0.00    -0.295 N 
ATOM     51  H   GLY A   9      26.154  -4.006   1.337  0.00  0.00    +0.150 HD
ATOM     52  O   GLN A   8      23.343  -5.056   0.318  0.00  0.00    -0.273 OA
BRANCH  50  53
ATOM     53  CA  GLY A   9      25.666  -4.142  -0.776  0.00  0.00    +0.176 C 
BRANCH  53  54
ATOM     54  C   GLY A   9      25.789  -2.749  -1.364  0.00  0.00    +0.243 C 
ATOM     55  N   GLY A  10      25.312  -1.743  -0.639  0.00  0.00    -0.296 N 
ATOM     56  H   GLY A  10      24.885  -1.937   0.289  0.00  0.00    +0.150 HD
ATOM     57  O   GLY A   9      26.309  -2.588  -2.473  0.00  0.00    -0.273 OA
BRANCH  55  58
ATOM     58  CA  GLY A  10      25.379  -0.377  -1.126  0.00  0.00    +0.163 C 
BRANCH  58  59
ATOM     59  C   GLY A  10      26.789   0.170  -1.235  0.00  0.00    +0.229 C 
ATOM     60  O   GLY A  10      27.671  -0.197  -0.460  0.00  0.00    -0.286 OA
ENDBRANCH  58  59
ENDBRANCH  55  58
ENDBRANCH  53  54
ENDBRANCH  50  53
ENDBRANCH  48  49
BRANCH  48  61
ATOM     61  CB  GLN A   8      22.903  -4.048   3.085  0.00  0.00    +0.039 C 
BRANCH  61  62
ATOM     62  CG  GLN A   8      22.477  -4.332   4.535  0.00  0.00    +0.087 C 
BRANCH  62  63
ATOM     63  CD  GLN A   8      21.359  -3.407   5.018  0.00  0.00    +0.219 C 
ATOM     64  NE2 GLN A   8      21.652  -2.614   6.042  0.00  0.00    -0.329 N 
ATOM     65 HE21 GLN A   8      22.602  -2.640   6.465  0.00  0.00    +0.145 HD
ATOM     66 HE22 GLN A   8      20.932  -1.967   6.421  0.00  0.00    +0.145 HD
ATOM     67  OE1 GLN A   8      20.247  -3.412   4.483  0.00  0.00    -0.275 OA
ENDBRANCH  62  63
ENDBRANCH  61  62
ENDBRANCH  48  61
ENDBRANCH  45  48
ENDBRANCH  42  44
ENDBRANCH  39  42
ENDBRANCH  37  38
ENDBRANCH  35  37
ENDBRANCH   1  33
BRANCH   1  68
ATOM     68  CB  VAL A   5      26.863   2.068   2.977  0.00  0.00    +0.027 C 
ATOM     69  CG2 VAL A   5      25.927   3.163   2.489  0.00  0.00    +0.002 C 
ATOM     70  CG1 VAL A   5      28.225   2.191   2.302  0.00  0.00    +0.002 C 
ENDBRANCH   1  68
TORSDOF 27
REMARK  Name = ../refined-set-2016/3g1d/3g1d_pocket.pdb
REMARK  207 active torsions:
REMARK  status: ('A' for Active; 'I' for Inactive)
REMARK    1  A    between atoms: _1  and  _3
REMARK    2  A    between atoms: _3  and  _4
REMARK    3  A    between atoms: _3  and  _6
REMARK    4  A    between atoms: _6  and  _7
REMARK    5  A    between atoms: _10  and  _12
REMARK    6  A    between atoms: _12  and  _13
REMARK    7  A    between atoms: _12  and  _15
REMARK    8  A    between atoms: _15  and  _16
REMARK    9  A    between atoms: _19  and  _21
REMARK   10  A    between atoms: _21  and  _22
REMARK   11  A    between atoms: _25  and  _27
REMARK   12  A    between atoms: _27  and  _28
REMARK   13  A    between atoms: _27  and  _30
REMARK   14  A    between atoms: _30  and  _31
REMARK   15  A    between atoms: _31  and  _32
REMARK   16  A    between atoms: _34  and  _36
REMARK   17  A    between atoms: _36  and  _37
REMARK   18  A    between atoms: _36  and  _39
REMARK   19  A    between atoms: _39  and  _40
REMARK   20  A    between atoms: _43  and  _45
REMARK   21  A    between atoms: _45  and  _46
REMARK   22  A    between atoms: _45  and  _48
REMARK   23  A    between atoms: _48  and  _49
REMARK   24  A    between atoms: _49  and  _50
REMARK   25  A    between atoms: _50  and  _51
REMARK   26  A    between atoms: _51  and  _52
REMARK   27  A    between atoms: _56  and  _58
REMARK   28  A    between atoms: _58  and  _59
REMARK   29  A    between atoms: _58  and  _61
REMARK   30  A    between atoms: _61  and  _62
REMARK   31  A    between atoms: _65  and  _67
REMARK   32  A    between atoms: _67  and  _68
REMARK   33  A    between atoms: _70  and  _72
REMARK   34  A    between atoms: _72  and  _73
REMARK   35  A    between atoms: _72  and  _75
REMARK   36  A    between atoms: _75  and  _76
REMARK   37  A    between atoms: _81  and  _82
REMARK   38  A    between atoms: _85  and  _86
REMARK   39  A    between atoms: _91  and  _93
REMARK   40  A    between atoms: _93  and  _94
REMARK   41  A    between atoms: _93  and  _96
REMARK   42  A    between atoms: _96  and  _97
REMARK   43  A    between atoms: _100  and  _102
REMARK   44  A    between atoms: _102  and  _103
REMARK   45  A    between atoms: _102  and  _105
REMARK   46  A    between atoms: _105  and  _106
REMARK   47  A    between atoms: _109  and  _111
REMARK   48  A    between atoms: _111  and  _112
REMARK   49  A    between atoms: _111  and  _114
REMARK   50  A    between atoms: _114  and  _115
REMARK   51  A    between atoms: _115  and  _116
REMARK   52  A    between atoms: _116  and  _117
REMARK   53  A    between atoms: _117  and  _118
REMARK   54  A    between atoms: _122  and  _124
REMARK   55  A    between atoms: _124  and  _125
REMARK   56  A    between atoms: _124  and  _127
REMARK   57  A    between atoms: _127  and  _128
REMARK   58  A    between atoms: _131  and  _133
REMARK   59  A    between atoms: _133  and  _134
REMARK   60  A    between atoms: _133  and  _136
REMARK   61  A    between atoms: _136  and  _137
REMARK   62  A    between atoms: _142  and  _144
REMARK   63  A    between atoms: _144  and  _145
REMARK   64  A    between atoms: _144  and  _147
REMARK   65  A    between atoms: _147  and  _148
REMARK   66  A    between atoms: _151  and  _153
REMARK   67  A    between atoms: _153  and  _154
REMARK   68  A    between atoms: _153  and  _156
REMARK   69  A    between atoms: _156  and  _157
REMARK   70  A    between atoms: _160  and  _162
REMARK   71  A    between atoms: _162  and  _163
REMARK   72  A    between atoms: _162  and  _165
REMARK   73  A    between atoms: _165  and  _166
REMARK   74  A    between atoms: _166  and  _167
REMARK   75  A    between atoms: _170  and  _172
REMARK   76  A    between atoms: _172  and  _173
REMARK   77  A    between atoms: _172  and  _175
REMARK   78  A    between atoms: _175  and  _176
REMARK   79  A    between atoms: _176  and  _177
REMARK   80  A    between atoms: _179  and  _181
REMARK   81  A    between atoms: _181  and  _182
REMARK   82  A    between atoms: _181  and  _184
REMARK   83  A    between atoms: _184  and  _185
REMARK   84  A    between atoms: _187  and  _189
REMARK   85  A    between atoms: _189  and  _190
REMARK   86  A    between atoms: _189  and  _192
REMARK   87  A    between atoms: _192  and  _193
REMARK   88  A    between atoms: _198  and  _200
REMARK   89  A    between atoms: _200  and  _201
REMARK   90  A    between atoms: _204  and  _206
REMARK   91  A    between atoms: _206  and  _207
REMARK   92  A    between atoms: _206  and  _209
REMARK   93  A    between atoms: _209  and  _210
REMARK   94  A    between atoms: _213  and  _215
REMARK   95  A    between atoms: _215  and  _216
REMARK   96  A    between atoms: _215  and  _218
REMARK   97  A    between atoms: _221  and  _223
REMARK   98  A    between atoms: _223  and  _224
REMARK   99  A    between atoms: _227  and  _228
REMARK  100  A    between atoms: _233  and  _235
REMARK  101  A    between atoms: _235  and  _236
REMARK  102  A    between atoms: _235  and  _238
REMARK  103  A    between atoms: _238  and  _239
REMARK  104  A    between atoms: _241  and  _243
REMARK  105  A    between atoms: _243  and  _244
REMARK  106  A    between atoms: _243  and  _246
REMARK  107  A    between atoms: _246  and  _247
REMARK  108  A    between atoms: _250  and  _252
REMARK  109  A    between atoms: _252  and  _253
REMARK  110  A    between atoms: _252  and  _255
REMARK  111  A    between atoms: _255  and  _256
REMARK  112  A    between atoms: _256  and  _257
REMARK  113  A    between atoms: _257  and  _258
REMARK  114  A    between atoms: _267  and  _269
REMARK  115  A    between atoms: _269  and  _270
REMARK  116  A    between atoms: _269  and  _272
REMARK  117  A    between atoms: _272  and  _273
REMARK  118  A    between atoms: _276  and  _278
REMARK  119  A    between atoms: _278  and  _279
REMARK  120  A    between atoms: _278  and  _281
REMARK  121  A    between atoms: _281  and  _282
REMARK  122  A    between atoms: _285  and  _286
REMARK  123  A    between atoms: _291  and  _293
REMARK  124  A    between atoms: _293  and  _294
REMARK  125  A    between atoms: _296  and  _298
REMARK  126  A    between atoms: _298  and  _299
REMARK  127  A    between atoms: _298  and  _301
REMARK  128  A    between atoms: _304  and  _306
REMARK  129  A    between atoms: _306  and  _307
REMARK  130  A    between atoms: _309  and  _311
REMARK  131  A    between atoms: _311  and  _312
REMARK  132  A    between atoms: _315  and  _317
REMARK  133  A    between atoms: _317  and  _318
REMARK  134  A    between atoms: _317  and  _320
REMARK  135  A    between atoms: _320  and  _321
REMARK  136  A    between atoms: _321  and  _322
REMARK  137  A    between atoms: _327  and  _329
REMARK  138  A    between atoms: _329  and  _330
REMARK  139  A    between atoms: _332  and  _334
REMARK  140  A    between atoms: _334  and  _335
REMARK  141  A    between atoms: _337  and  _339
REMARK  142  A    between atoms: _339  and  _340
REMARK  143  A    between atoms: _339  and  _342
REMARK  144  A    between atoms: _342  and  _343
REMARK  145  A    between atoms: _346  and  _348
REMARK  146  A    between atoms: _348  and  _349
REMARK  147  A    between atoms: _348  and  _351
REMARK  148  A    between atoms: _354  and  _356
REMARK  149  A    between atoms: _356  and  _357
REMARK  150  A    between atoms: _359  and  _361
REMARK  151  A    between atoms: _361  and  _362
REMARK  152  A    between atoms: _361  and  _364
REMARK  153  A    between atoms: _364  and  _365
REMARK  154  A    between atoms: _365  and  _366
REMARK  155  A    between atoms: _366  and  _367
REMARK  156  A    between atoms: _376  and  _378
REMARK  157  A    between atoms: _378  and  _379
REMARK  158  A    between atoms: _378  and  _381
REMARK  159  A    between atoms: _381  and  _382
REMARK  160  A    between atoms: _384  and  _386
REMARK  161  A    between atoms: _386  and  _387
REMARK  162  A    between atoms: _386  and  _389
REMARK  163  A    between atoms: _389  and  _390
REMARK  164  A    between atoms: _393  and  _395
REMARK  165  A    between atoms: _395  and  _396
REMARK  166  A    between atoms: _395  and  _398
REMARK  167  A    between atoms: _398  and  _399
REMARK  168  A    between atoms: _404  and  _405
REMARK  169  A    between atoms: _407  and  _409
REMARK  170  A    between atoms: _409  and  _410
REMARK  171  A    between atoms: _409  and  _412
REMARK  172  A    between atoms: _412  and  _413
REMARK  173  A    between atoms: _416  and  _418
REMARK  174  A    between atoms: _418  and  _419
REMARK  175  A    between atoms: _422  and  _424
REMARK  176  A    between atoms: _424  and  _425
REMARK  177  A    between atoms: _424  and  _427
REMARK  178  A    between atoms: _427  and  _428
REMARK  179  A    between atoms: _431  and  _433
REMARK  180  A    between atoms: _433  and  _434
REMARK  181  A    between atoms: _433  and  _436
REMARK  182  A    between atoms: _436  and  _437
REMARK  183  A    between atoms: _441  and  _442
REMARK  184  A    between atoms: _447  and  _449
REMARK  185  A    between atoms: _449  and  _450
REMARK  186  A    between atoms: _449  and  _452
REMARK  187  A    between atoms: _452  and  _453
REMARK  188  A    between atoms: _453  and  _454
REMARK  189  A    between atoms: _457  and  _459
REMARK  190  A    between atoms: _459  and  _460
REMARK  191  A    between atoms: _459  and  _462
REMARK  192  A    between atoms: _462  and  _463
REMARK  193  A    between atoms: _466  and  _468
REMARK  194  A    between atoms: _468  and  _469
REMARK  195  A    between atoms: _468  and  _471
REMARK  196  A    between atoms: _471  and  _472
REMARK  197  A    between atoms: _477  and  _479
REMARK  198  A    between atoms: _479  and  _480
REMARK  199  A    between atoms: _479  and  _482
REMARK  200  A    between atoms: _482  and  _483
REMARK  201  A    between atoms: _483  and  _484
REMARK  202  A    between atoms: _484  and  _485
REMARK  203  A    between atoms: _485  and  _486
REMARK  204  A    between atoms: _490  and  _492
REMARK  205  A    between atoms: _492  and  _493
REMARK  206  A    between atoms: _492  and  _495
REMARK  207  A    between atoms: _495  and  _496
REMARK                            x       y       z     vdW  Elec       q    Type
REMARK                         _______ _______ _______ _____ _____    ______ ____
ROOT
ATOM      1  C   ARG A   4      30.494  -3.656   9.494  0.00  0.00    +0.241 C 
ATOM      2  O   ARG A   4      31.551  -4.081   9.956  0.00  0.00    -0.273 OA
ATOM      3  N   SER A   5      30.435  -3.011   8.332  0.00  0.00    -0.295 N 
ATOM      4  H   SER A   5      29.520  -2.658   7.986  0.00  0.00    +0.150 HD
ENDROOT
BRANCH   3   5
ATOM      5  CA  SER A   5      31.643  -2.793   7.536  0.00  0.00    +0.178 C 
BRANCH   5   6
ATOM      6  C   SER A   5      32.733  -2.130   8.366  0.00  0.00    +0.243 C 
ATOM      7  N   ILE A   6      32.324  -1.424   9.413  0.00  0.00    -0.297 N 
ATOM      8  H   ILE A   6      31.306  -1.348   9.614  0.00  0.00    +0.150 HD
ATOM      9  O   SER A   5      33.921  -2.251   8.065  0.00  0.00    -0.273 OA
BRANCH   7  10
ATOM     10  CA  ILE A   6      33.276  -0.756  10.281  0.00  0.00    +0.149 C 
BRANCH  10  11
ATOM     11  C   ILE A   6      33.465  -1.477  11.617  0.00  0.00    +0.241 C 
ATOM     12  N   TYR A   7      32.374  -1.681  12.355  0.00  0.00    -0.297 N 
ATOM     13  H   TYR A   7      31.439  -1.413  11.987  0.00  0.00    +0.150 HD
ATOM     14  O   ILE A   6      34.581  -1.877  11.955  0.00  0.00    -0.273 OA
BRANCH  12  15
ATOM     15  CA  TYR A   7      32.494  -2.280  13.679  0.00  0.00    +0.153 C 
BRANCH  15  16
ATOM     16  C   TYR A   7      32.862  -3.764  13.781  0.00  0.00    +0.241 C 
ATOM     17  O   TYR A   7      33.204  -4.244  14.863  0.00  0.00    -0.273 OA
ATOM     18  N   LEU A   8      32.819  -4.487  12.669  0.00  0.00    -0.298 N 
ATOM     19  H   LEU A   8      32.509  -4.048  11.779  0.00  0.00    +0.150 HD
BRANCH  18  20
ATOM     20  CA  LEU A   8      33.204  -5.894  12.687  0.00  0.00    +0.137 C 
BRANCH  20  21
ATOM     21  C   LEU A   8      34.590  -6.083  12.068  0.00  0.00    +0.227 C 
ATOM     22  O   LEU A   8      35.121  -7.188  12.048  0.00  0.00    -0.286 OA
ENDBRANCH  20  21
BRANCH  20  23
ATOM     23  CB  LEU A   8      32.184  -6.751  11.931  0.00  0.00    +0.028 C 
BRANCH  23  24
ATOM     24  CG  LEU A   8      30.817  -6.962  12.583  0.00  0.00    +0.002 C 
ATOM     25  CD2 LEU A   8      30.974  -7.634  13.937  0.00  0.00    +0.000 C 
ATOM     26  CD1 LEU A   8      29.972  -7.825  11.669  0.00  0.00    +0.000 C 
ENDBRANCH  23  24
ENDBRANCH  20  23
ENDBRANCH  18  20
ENDBRANCH  15  16
BRANCH  15  27
ATOM     27  CB  TYR A   7      31.257  -1.933  14.536  0.00  0.00    +0.055 C 
BRANCH  27  28
ATOM     28  CG  TYR A   7      29.954  -2.642  14.236  0.00  0.00    -0.020 A 
ATOM     29  CD2 TYR A   7      29.796  -4.003  14.496  0.00  0.00    -0.001 A 
ATOM     30  CE2 TYR A   7      28.565  -4.637  14.306  0.00  0.00    +0.036 A 
ATOM     31  CZ  TYR A   7      27.479  -3.903  13.849  0.00  0.00    +0.134 A 
ATOM     32  CE1 TYR A   7      27.610  -2.556  13.581  0.00  0.00    +0.036 A 
ATOM     33  CD1 TYR A   7      28.843  -1.928  13.771  0.00  0.00    -0.001 A 
BRANCH  31  34
ATOM     34  OH  TYR A   7      26.263  -4.519  13.665  0.00  0.00    -0.506 OA
ATOM     35  HH  TYR A   7      25.991  -4.432  12.717  0.00  0.00    +0.292 HD
ENDBRANCH  31  34
ENDBRANCH  27  28
ENDBRANCH  15  27
ENDBRANCH  12  15
ENDBRANCH  10  11
BRANCH  10  36
ATOM     36  CB  ILE A   6      32.845   0.708  10.570  0.00  0.00    +0.027 C 
ATOM     37  CG2 ILE A   6      33.614   1.266  11.765  0.00  0.00    +0.002 C 
BRANCH  36  38
ATOM     38  CG1 ILE A   6      33.087   1.572   9.335  0.00  0.00    +0.002 C 
ATOM     39  CD1 ILE A   6      32.486   2.949   9.424  0.00  0.00    +0.000 C 
ENDBRANCH  36  38
ENDBRANCH  10  36
ENDBRANCH   7  10
ENDBRANCH   5   6
BRANCH   5  40
ATOM     40  CB  SER A   5      31.335  -1.922   6.315  0.00  0.00    +0.166 C 
BRANCH  40  41
ATOM     41  OG  SER A   5      30.569  -2.630   5.355  0.00  0.00    -0.380 OA
ATOM     42  H   SER A   5      29.713  -2.915   5.763  0.00  0.00    +0.211 HD
ENDBRANCH  40  41
ENDBRANCH   5  40
ENDBRANCH   3   5
BRANCH   1  43
ATOM     43  CA  ARG A   4      29.190  -3.851  10.264  0.00  0.00    +0.149 C 
BRANCH  43  46
ATOM     44  C   GLY A   3      28.700  -1.480  10.604  0.00  0.00    +0.243 C 
ATOM     45  O   GLY A   3      29.886  -1.210  10.788  0.00  0.00    -0.273 OA
ATOM     46  N   ARG A   4      28.278  -2.707  10.318  0.00  0.00    -0.297 N 
ATOM     47  H   ARG A   4      27.267  -2.860  10.126  0.00  0.00    +0.150 HD
BRANCH  44  48
ATOM     48  CA  GLY A   3      27.631  -0.400  10.666  0.00  0.00    +0.176 C 
BRANCH  48  51
ATOM     49  C   VAL A   2      27.884   1.644   9.375  0.00  0.00    +0.241 C 
ATOM     50  O   VAL A   2      28.326   2.269  10.335  0.00  0.00    -0.273 OA
ATOM     51  N   GLY A   3      27.508   0.369   9.439  0.00  0.00    -0.295 N 
ATOM     52  H   GLY A   3      27.117  -0.088   8.591  0.00  0.00    +0.150 HD
BRANCH  49  53
ATOM     53  CA  VAL A   2      27.713   2.325   8.025  0.00  0.00    +0.148 C 
BRANCH  53  55
ATOM     54  C   ILE A   1      25.911   3.800   7.342  0.00  0.00    +0.238 C 
ATOM     55  N   VAL A   2      26.937   3.554   8.149  0.00  0.00    -0.297 N 
ATOM     56  H   VAL A   2      27.191   4.248   8.880  0.00  0.00    +0.150 HD
ATOM     57  O   ILE A   1      25.572   3.031   6.445  0.00  0.00    -0.274 OA
BRANCH  54  58
ATOM     58  CA  ILE A   1      25.159   5.111   7.560  0.00  0.00    +0.145 C 
BRANCH  58  59
ATOM     59  N   ILE A   1      25.159   5.799   6.284  0.00  0.00    -0.238 NA
ATOM     60  H   ILE A   1      24.511   5.468   5.541  0.00  0.00    +0.142 HD
ENDBRANCH  58  59
BRANCH  58  61
ATOM     61  CB  ILE A   1      23.720   4.795   7.997  0.00  0.00    +0.025 C 
ATOM     62  CG2 ILE A   1      23.728   3.797   9.146  0.00  0.00    +0.002 C 
BRANCH  61  63
ATOM     63  CG1 ILE A   1      22.995   6.096   8.347  0.00  0.00    +0.002 C 
ATOM     64  CD1 ILE A   1      21.487   5.962   8.412  0.00  0.00    +0.000 C 
ENDBRANCH  61  63
ENDBRANCH  58  61
ENDBRANCH  54  58
ENDBRANCH  53  55
BRANCH  53  65
ATOM     65  CB  VAL A   2      29.116   2.591   7.421  0.00  0.00    +0.027 C 
ATOM     66  CG2 VAL A   2      29.904   1.286   7.341  0.00  0.00    +0.002 C 
ATOM     67  CG1 VAL A   2      28.977   3.198   6.037  0.00  0.00    +0.002 C 
ENDBRANCH  53  65
ENDBRANCH  49  53
ENDBRANCH  48  51
ENDBRANCH  44  48
ENDBRANCH  43  46
BRANCH  43  68
ATOM     68  CB  ARG A   4      28.436  -5.074   9.733  0.00  0.00    +0.033 C 
BRANCH  68  69
ATOM     69  CG  ARG A   4      27.434  -5.628  10.740  0.00  0.00    +0.045 C 
BRANCH  69  70
ATOM     70  CD  ARG A   4      26.450  -6.594  10.093  0.00  0.00    +0.174 C 
BRANCH  70  71
ATOM     71  NE  ARG A   4      25.515  -5.894   9.219  0.00  0.00    -0.265 N 
ATOM     72  HE  ARG A   4      25.493  -4.855   9.261  0.00  0.00    +0.259 HD
ATOM     73  CZ  ARG A   4      24.690  -6.502   8.373  0.00  0.00    +0.342 C 
ATOM     74  NH2 ARG A   4      24.686  -7.826   8.284  0.00  0.00    -0.292 N 
ATOM     75 HH21 ARG A   4      25.329  -8.389   8.877  0.00  0.00    +0.255 HD
ATOM     76 HH22 ARG A   4      24.040  -8.301   7.622  0.00  0.00    +0.255 HD
ATOM     77  NH1 ARG A   4      23.869  -5.787   7.614  0.00  0.00    -0.292 N 
ATOM     78 HH11 ARG A   4      23.871  -4.749   7.681  0.00  0.00    +0.255 HD
ATOM     79 HH12 ARG A   4      23.224  -6.265   6.952  0.00  0.00    +0.255 HD
ENDBRANCH  70  71
ENDBRANCH  69  70
ENDBRANCH  68  69
ENDBRANCH  43  68
ENDBRANCH   1  43
TORSDOF 32
REMARK  Name = ../refined-set-2016/3g1d/3g1d_pocket.pdb
REMARK  207 active torsions:
REMARK  status: ('A' for Active; 'I' for Inactive)
REMARK    1  A    between atoms: _1  and  _3
REMARK    2  A    between atoms: _3  and  _4
REMARK    3  A    between atoms: _3  and  _6
REMARK    4  A    between atoms: _6  and  _7
REMARK    5  A    between atoms: _10  and  _12
REMARK    6  A    between atoms: _12  and  _13
REMARK    7  A    between atoms: _12  and  _15
REMARK    8  A    between atoms: _15  and  _16
REMARK    9  A    between atoms: _19  and  _21
REMARK   10  A    between atoms: _21  and  _22
REMARK   11  A    between atoms: _25  and  _27
REMARK   12  A    between atoms: _27  and  _28
REMARK   13  A    between atoms: _27  and  _30
REMARK   14  A    between atoms: _30  and  _31
REMARK   15  A    between atoms: _31  and  _32
REMARK   16  A    between atoms: _34  and  _36
REMARK   17  A    between atoms: _36  and  _37
REMARK   18  A    between atoms: _36  and  _39
REMARK   19  A    between atoms: _39  and  _40
REMARK   20  A    between atoms: _43  and  _45
REMARK   21  A    between atoms: _45  and  _46
REMARK   22  A    between atoms: _45  and  _48
REMARK   23  A    between atoms: _48  and  _49
REMARK   24  A    between atoms: _49  and  _50
REMARK   25  A    between atoms: _50  and  _51
REMARK   26  A    between atoms: _51  and  _52
REMARK   27  A    between atoms: _56  and  _58
REMARK   28  A    between atoms: _58  and  _59
REMARK   29  A    between atoms: _58  and  _61
REMARK   30  A    between atoms: _61  and  _62
REMARK   31  A    between atoms: _65  and  _67
REMARK   32  A    between atoms: _67  and  _68
REMARK   33  A    between atoms: _70  and  _72
REMARK   34  A    between atoms: _72  and  _73
REMARK   35  A    between atoms: _72  and  _75
REMARK   36  A    between atoms: _75  and  _76
REMARK   37  A    between atoms: _81  and  _82
REMARK   38  A    between atoms: _85  and  _86
REMARK   39  A    between atoms: _91  and  _93
REMARK   40  A    between atoms: _93  and  _94
REMARK   41  A    between atoms: _93  and  _96
REMARK   42  A    between atoms: _96  and  _97
REMARK   43  A    between atoms: _100  and  _102
REMARK   44  A    between atoms: _102  and  _103
REMARK   45  A    between atoms: _102  and  _105
REMARK   46  A    between atoms: _105  and  _106
REMARK   47  A    between atoms: _109  and  _111
REMARK   48  A    between atoms: _111  and  _112
REMARK   49  A    between atoms: _111  and  _114
REMARK   50  A    between atoms: _114  and  _115
REMARK   51  A    between atoms: _115  and  _116
REMARK   52  A    between atoms: _116  and  _117
REMARK   53  A    between atoms: _117  and  _118
REMARK   54  A    between atoms: _122  and  _124
REMARK   55  A    between atoms: _124  and  _125
REMARK   56  A    between atoms: _124  and  _127
REMARK   57  A    between atoms: _127  and  _128
REMARK   58  A    between atoms: _131  and  _133
REMARK   59  A    between atoms: _133  and  _134
REMARK   60  A    between atoms: _133  and  _136
REMARK   61  A    between atoms: _136  and  _137
REMARK   62  A    between atoms: _142  and  _144
REMARK   63  A    between atoms: _144  and  _145
REMARK   64  A    between atoms: _144  and  _147
REMARK   65  A    between atoms: _147  and  _148
REMARK   66  A    between atoms: _151  and  _153
REMARK   67  A    between atoms: _153  and  _154
REMARK   68  A    between atoms: _153  and  _156
REMARK   69  A    between atoms: _156  and  _157
REMARK   70  A    between atoms: _160  and  _162
REMARK   71  A    between atoms: _162  and  _163
REMARK   72  A    between atoms: _162  and  _165
REMARK   73  A    between atoms: _165  and  _166
REMARK   74  A    between atoms: _166  and  _167
REMARK   75  A    between atoms: _170  and  _172
REMARK   76  A    between atoms: _172  and  _173
REMARK   77  A    between atoms: _172  and  _175
REMARK   78  A    between atoms: _175  and  _176
REMARK   79  A    between atoms: _176  and  _177
REMARK   80  A    between atoms: _179  and  _181
REMARK   81  A    between atoms: _181  and  _182
REMARK   82  A    between atoms: _181  and  _184
REMARK   83  A    between atoms: _184  and  _185
REMARK   84  A    between atoms: _187  and  _189
REMARK   85  A    between atoms: _189  and  _190
REMARK   86  A    between atoms: _189  and  _192
REMARK   87  A    between atoms: _192  and  _193
REMARK   88  A    between atoms: _198  and  _200
REMARK   89  A    between atoms: _200  and  _201
REMARK   90  A    between atoms: _204  and  _206
REMARK   91  A    between atoms: _206  and  _207
REMARK   92  A    between atoms: _206  and  _209
REMARK   93  A    between atoms: _209  and  _210
REMARK   94  A    between atoms: _213  and  _215
REMARK   95  A    between atoms: _215  and  _216
REMARK   96  A    between atoms: _215  and  _218
REMARK   97  A    between atoms: _221  and  _223
REMARK   98  A    between atoms: _223  and  _224
REMARK   99  A    between atoms: _227  and  _228
REMARK  100  A    between atoms: _233  and  _235
REMARK  101  A    between atoms: _235  and  _236
REMARK  102  A    between atoms: _235  and  _238
REMARK  103  A    between atoms: _238  and  _239
REMARK  104  A    between atoms: _241  and  _243
REMARK  105  A    between atoms: _243  and  _244
REMARK  106  A    between atoms: _243  and  _246
REMARK  107  A    between atoms: _246  and  _247
REMARK  108  A    between atoms: _250  and  _252
REMARK  109  A    between atoms: _252  and  _253
REMARK  110  A    between atoms: _252  and  _255
REMARK  111  A    between atoms: _255  and  _256
REMARK  112  A    between atoms: _256  and  _257
REMARK  113  A    between atoms: _257  and  _258
REMARK  114  A    between atoms: _267  and  _269
REMARK  115  A    between atoms: _269  and  _270
REMARK  116  A    between atoms: _269  and  _272
REMARK  117  A    between atoms: _272  and  _273
REMARK  118  A    between atoms: _276  and  _278
REMARK  119  A    between atoms: _278  and  _279
REMARK  120  A    between atoms: _278  and  _281
REMARK  121  A    between atoms: _281  and  _282
REMARK  122  A    between atoms: _285  and  _286
REMARK  123  A    between atoms: _291  and  _293
REMARK  124  A    between atoms: _293  and  _294
REMARK  125  A    between atoms: _296  and  _298
REMARK  126  A    between atoms: _298  and  _299
REMARK  127  A    between atoms: _298  and  _301
REMARK  128  A    between atoms: _304  and  _306
REMARK  129  A    between atoms: _306  and  _307
REMARK  130  A    between atoms: _309  and  _311
REMARK  131  A    between atoms: _311  and  _312
REMARK  132  A    between atoms: _315  and  _317
REMARK  133  A    between atoms: _317  and  _318
REMARK  134  A    between atoms: _317  and  _320
REMARK  135  A    between atoms: _320  and  _321
REMARK  136  A    between atoms: _321  and  _322
REMARK  137  A    between atoms: _327  and  _329
REMARK  138  A    between atoms: _329  and  _330
REMARK  139  A    between atoms: _332  and  _334
REMARK  140  A    between atoms: _334  and  _335
REMARK  141  A    between atoms: _337  and  _339
REMARK  142  A    between atoms: _339  and  _340
REMARK  143  A    between atoms: _339  and  _342
REMARK  144  A    between atoms: _342  and  _343
REMARK  145  A    between atoms: _346  and  _348
REMARK  146  A    between atoms: _348  and  _349
REMARK  147  A    between atoms: _348  and  _351
REMARK  148  A    between atoms: _354  and  _356
REMARK  149  A    between atoms: _356  and  _357
REMARK  150  A    between atoms: _359  and  _361
REMARK  151  A    between atoms: _361  and  _362
REMARK  152  A    between atoms: _361  and  _364
REMARK  153  A    between atoms: _364  and  _365
REMARK  154  A    between atoms: _365  and  _366
REMARK  155  A    between atoms: _366  and  _367
REMARK  156  A    between atoms: _376  and  _378
REMARK  157  A    between atoms: _378  and  _379
REMARK  158  A    between atoms: _378  and  _381
REMARK  159  A    between atoms: _381  and  _382
REMARK  160  A    between atoms: _384  and  _386
REMARK  161  A    between atoms: _386  and  _387
REMARK  162  A    between atoms: _386  and  _389
REMARK  163  A    between atoms: _389  and  _390
REMARK  164  A    between atoms: _393  and  _395
REMARK  165  A    between atoms: _395  and  _396
REMARK  166  A    between atoms: _395  and  _398
REMARK  167  A    between atoms: _398  and  _399
REMARK  168  A    between atoms: _404  and  _405
REMARK  169  A    between atoms: _407  and  _409
REMARK  170  A    between atoms: _409  and  _410
REMARK  171  A    between atoms: _409  and  _412
REMARK  172  A    between atoms: _412  and  _413
REMARK  173  A    between atoms: _416  and  _418
REMARK  174  A    between atoms: _418  and  _419
REMARK  175  A    between atoms: _422  and  _424
REMARK  176  A    between atoms: _424  and  _425
REMARK  177  A    between atoms: _424  and  _427
REMARK  178  A    between atoms: _427  and  _428
REMARK  179  A    between atoms: _431  and  _433
REMARK  180  A    between atoms: _433  and  _434
REMARK  181  A    between atoms: _433  and  _436
REMARK  182  A    between atoms: _436  and  _437
REMARK  183  A    between atoms: _441  and  _442
REMARK  184  A    between atoms: _447  and  _449
REMARK  185  A    between atoms: _449  and  _450
REMARK  186  A    between atoms: _449  and  _452
REMARK  187  A    between atoms: _452  and  _453
REMARK  188  A    between atoms: _453  and  _454
REMARK  189  A    between atoms: _457  and  _459
REMARK  190  A    between atoms: _459  and  _460
REMARK  191  A    between atoms: _459  and  _462
REMARK  192  A    between atoms: _462  and  _463
REMARK  193  A    between atoms: _466  and  _468
REMARK  194  A    between atoms: _468  and  _469
REMARK  195  A    between atoms: _468  and  _471
REMARK  196  A    between atoms: _471  and  _472
REMARK  197  A    between atoms: _477  and  _479
REMARK  198  A    between atoms: _479  and  _480
REMARK  199  A    between atoms: _479  and  _482
REMARK  200  A    between atoms: _482  and  _483
REMARK  201  A    between atoms: _483  and  _484
REMARK  202  A    between atoms: _484  and  _485
REMARK  203  A    between atoms: _485  and  _486
REMARK  204  A    between atoms: _490  and  _492
REMARK  205  A    between atoms: _492  and  _493
REMARK  206  A    between atoms: _492  and  _495
REMARK  207  A    between atoms: _495  and  _496
REMARK                            x       y       z     vdW  Elec       q    Type
REMARK                         _______ _______ _______ _____ _____    ______ ____
ROOT
ATOM      1  C   PRO A   4      17.480  -9.252  10.307  0.00  0.00    +0.241 C 
ATOM      2  O   PRO A   4      17.215  -9.681  11.434  0.00  0.00    -0.273 OA
ATOM      3  N   GLU A   5      18.698  -8.862   9.949  0.00  0.00    -0.297 N 
ATOM      4  H   GLU A   5      18.841  -8.494   8.987  0.00  0.00    +0.150 HD
ENDROOT
BRANCH   1   8
ATOM      5  C   ILE A   3      16.135  -6.714   9.362  0.00  0.00    +0.244 C 
ATOM      6  O   ILE A   3      16.212  -6.761  10.591  0.00  0.00    -0.273 OA
ATOM      7  N   PRO A   4      16.207  -7.824   8.617  0.00  0.00    -0.272 N 
ATOM      8  CA  PRO A   4      16.384  -9.143   9.235  0.00  0.00    +0.152 C 
ATOM      9  CB  PRO A   4      16.649 -10.043   8.035  0.00  0.00    +0.031 C 
ATOM     10  CG  PRO A   4      15.786  -9.412   6.969  0.00  0.00    +0.024 C 
ATOM     11  CD  PRO A   4      16.046  -7.936   7.158  0.00  0.00    +0.094 C 
BRANCH   5  12
ATOM     12  CA  ILE A   3      15.943  -5.373   8.635  0.00  0.00    +0.149 C 
BRANCH  12  15
ATOM     13  C   ASP A   2      14.257  -4.454  10.121  0.00  0.00    +0.241 C 
ATOM     14  O   ASP A   2      13.409  -5.257   9.719  0.00  0.00    -0.273 OA
ATOM     15  N   ILE A   3      15.494  -4.409   9.634  0.00  0.00    -0.297 N 
ATOM     16  H   ILE A   3      16.151  -3.676   9.970  0.00  0.00    +0.150 HD
BRANCH  13  17
ATOM     17  CA  ASP A   2      13.917  -3.437  11.207  0.00  0.00    +0.160 C 
BRANCH  17  19
ATOM     18  C   ALA A   1      11.585  -2.896  11.605  0.00  0.00    +0.238 C 
ATOM     19  N   ASP A   2      12.604  -3.731  11.755  0.00  0.00    -0.297 N 
ATOM     20  H   ASP A   2      12.460  -4.618  12.278  0.00  0.00    +0.150 HD
ATOM     21  O   ALA A   1      11.669  -1.842  10.964  0.00  0.00    -0.274 OA
BRANCH  18  22
ATOM     22  CA  ALA A   1      10.269  -3.308  12.248  0.00  0.00    +0.145 C 
ATOM     23  CB  ALA A   1       9.278  -2.150  12.156  0.00  0.00    +0.028 C 
BRANCH  22  24
ATOM     24  N   ALA A   1      10.412  -3.707  13.643  0.00  0.00    -0.238 NA
ATOM     25  H   ALA A   1      11.122  -3.237  14.240  0.00  0.00    +0.142 HD
ENDBRANCH  22  24
ENDBRANCH  18  22
ENDBRANCH  17  19
BRANCH  17  26
ATOM     26  CB  ASP A   2      14.951  -3.526  12.336  0.00  0.00    +0.143 C 
BRANCH  26  27
ATOM     27  CG  ASP A   2      16.035  -2.484  12.226  0.00  0.00    +0.367 C 
ATOM     28  OD2 ASP A   2      16.241  -1.753  13.217  0.00  0.00    -0.246 OA
ATOM     29  OD1 ASP A   2      16.686  -2.402  11.167  0.00  0.00    -0.246 OA
ENDBRANCH  26  27
ENDBRANCH  17  26
ENDBRANCH  13  17
ENDBRANCH  12  15
BRANCH  12  30
ATOM     30  CB  ILE A   3      17.280  -4.938   7.970  0.00  0.00    +0.027 C 
ATOM     31  CG2 ILE A   3      17.100  -3.582   7.274  0.00  0.00    +0.002 C 
BRANCH  30  32
ATOM     32  CG1 ILE A   3      18.399  -4.869   9.008  0.00  0.00    +0.002 C 
ATOM     33  CD1 ILE A   3      19.768  -4.624   8.405  0.00  0.00    +0.000 C 
ENDBRANCH  30  32
ENDBRANCH  12  30
ENDBRANCH   5  12
ENDBRANCH   1   8
BRANCH   3  34
ATOM     34  CA  GLU A   5      19.847  -8.929  10.852  0.00  0.00    +0.149 C 
BRANCH  34  35
ATOM     35  C   GLU A   5      19.614  -8.243  12.193  0.00  0.00    +0.241 C 
ATOM     36  O   GLU A   5      19.917  -8.800  13.256  0.00  0.00    -0.273 OA
ATOM     37  N   THR A   6      19.080  -7.030  12.144  0.00  0.00    -0.295 N 
ATOM     38  H   THR A   6      18.838  -6.617  11.221  0.00  0.00    +0.150 HD
BRANCH  37  39
ATOM     39  CA  THR A   6      18.826  -6.268  13.352  0.00  0.00    +0.176 C 
BRANCH  39  40
ATOM     40  C   THR A   6      17.634  -6.814  14.132  0.00  0.00    +0.243 C 
ATOM     41  O   THR A   6      17.625  -6.782  15.364  0.00  0.00    -0.273 OA
ATOM     42  N   ASN A   7      16.632  -7.323  13.419  0.00  0.00    -0.298 N 
ATOM     43  H   ASN A   7      16.681  -7.313  12.380  0.00  0.00    +0.150 HD
BRANCH  42  44
ATOM     44  CA  ASN A   7      15.465  -7.895  14.082  0.00  0.00    +0.146 C 
BRANCH  44  45
ATOM     45  C   ASN A   7      15.925  -9.046  14.966  0.00  0.00    +0.227 C 
ATOM     46  O   ASN A   7      15.457  -9.204  16.094  0.00  0.00    -0.286 OA
ENDBRANCH  44  45
BRANCH  44  47
ATOM     47  CB  ASN A   7      14.454  -8.403  13.055  0.00  0.00    +0.112 C 
BRANCH  47  48
ATOM     48  CG  ASN A   7      13.527  -7.311  12.572  0.00  0.00    +0.222 C 
ATOM     49  OD1 ASN A   7      13.753  -6.136  12.845  0.00  0.00    -0.275 OA
ATOM     50  ND2 ASN A   7      12.478  -7.691  11.855  0.00  0.00    -0.329 N 
ATOM     51 HD21 ASN A   7      12.327  -8.699  11.648  0.00  0.00    +0.145 HD
ATOM     52 HD22 ASN A   7      11.806  -6.981  11.499  0.00  0.00    +0.145 HD
ENDBRANCH  47  48
ENDBRANCH  44  47
ENDBRANCH  42  44
ENDBRANCH  39  40
BRANCH  39  53
ATOM     53  CB  THR A   6      18.608  -4.791  13.010  0.00  0.00    +0.137 C 
ATOM     54  CG2 THR A   6      18.538  -3.950  14.285  0.00  0.00    +0.034 C 
BRANCH  53  55
ATOM     55  OG1 THR A   6      19.714  -4.339  12.215  0.00  0.00    -0.382 OA
ATOM     56  HG1 THR A   6      20.554  -4.447  12.728  0.00  0.00    +0.210 HD
ENDBRANCH  53  55
ENDBRANCH  39  53
ENDBRANCH  37  39
ENDBRANCH  34  35
BRANCH  34  57
ATOM     57  CB  GLU A   5      21.069  -8.314  10.159  0.00  0.00    +0.041 C 
BRANCH  57  58
ATOM     58  CG  GLU A   5      22.255  -8.009  11.061  0.00  0.00    +0.116 C 
BRANCH  58  59
ATOM     59  CD  GLU A   5      22.874  -9.250  11.656  0.00  0.00    +0.365 C 
ATOM     60  OE2 GLU A   5      23.188  -9.238  12.867  0.00  0.00    -0.246 OA
ATOM     61  OE1 GLU A   5      23.060 -10.233  10.910  0.00  0.00    -0.246 OA
ENDBRANCH  58  59
ENDBRANCH  57  58
ENDBRANCH  34  57
ENDBRANCH   3  34
TORSDOF 24
REMARK  Name = ../refined-set-2016/3g1d/3g1d_pocket.pdb
REMARK  207 active torsions:
REMARK  status: ('A' for Active; 'I' for Inactive)
REMARK    1  A    between atoms: _1  and  _3
REMARK    2  A    between atoms: _3  and  _4
REMARK    3  A    between atoms: _3  and  _6
REMARK    4  A    between atoms: _6  and  _7
REMARK    5  A    between atoms: _10  and  _12
REMARK    6  A    between atoms: _12  and  _13
REMARK    7  A    between atoms: _12  and  _15
REMARK    8  A    between atoms: _15  and  _16
REMARK    9  A    between atoms: _19  and  _21
REMARK   10  A    between atoms: _21  and  _22
REMARK   11  A    between atoms: _25  and  _27
REMARK   12  A    between atoms: _27  and  _28
REMARK   13  A    between atoms: _27  and  _30
REMARK   14  A    between atoms: _30  and  _31
REMARK   15  A    between atoms: _31  and  _32
REMARK   16  A    between atoms: _34  and  _36
REMARK   17  A    between atoms: _36  and  _37
REMARK   18  A    between atoms: _36  and  _39
REMARK   19  A    between atoms: _39  and  _40
REMARK   20  A    between atoms: _43  and  _45
REMARK   21  A    between atoms: _45  and  _46
REMARK   22  A    between atoms: _45  and  _48
REMARK   23  A    between atoms: _48  and  _49
REMARK   24  A    between atoms: _49  and  _50
REMARK   25  A    between atoms: _50  and  _51
REMARK   26  A    between atoms: _51  and  _52
REMARK   27  A    between atoms: _56  and  _58
REMARK   28  A    between atoms: _58  and  _59
REMARK   29  A    between atoms: _58  and  _61
REMARK   30  A    between atoms: _61  and  _62
REMARK   31  A    between atoms: _65  and  _67
REMARK   32  A    between atoms: _67  and  _68
REMARK   33  A    between atoms: _70  and  _72
REMARK   34  A    between atoms: _72  and  _73
REMARK   35  A    between atoms: _72  and  _75
REMARK   36  A    between atoms: _75  and  _76
REMARK   37  A    between atoms: _81  and  _82
REMARK   38  A    between atoms: _85  and  _86
REMARK   39  A    between atoms: _91  and  _93
REMARK   40  A    between atoms: _93  and  _94
REMARK   41  A    between atoms: _93  and  _96
REMARK   42  A    between atoms: _96  and  _97
REMARK   43  A    between atoms: _100  and  _102
REMARK   44  A    between atoms: _102  and  _103
REMARK   45  A    between atoms: _102  and  _105
REMARK   46  A    between atoms: _105  and  _106
REMARK   47  A    between atoms: _109  and  _111
REMARK   48  A    between atoms: _111  and  _112
REMARK   49  A    between atoms: _111  and  _114
REMARK   50  A    between atoms: _114  and  _115
REMARK   51  A    between atoms: _115  and  _116
REMARK   52  A    between atoms: _116  and  _117
REMARK   53  A    between atoms: _117  and  _118
REMARK   54  A    between atoms: _122  and  _124
REMARK   55  A    between atoms: _124  and  _125
REMARK   56  A    between atoms: _124  and  _127
REMARK   57  A    between atoms: _127  and  _128
REMARK   58  A    between atoms: _131  and  _133
REMARK   59  A    between atoms: _133  and  _134
REMARK   60  A    between atoms: _133  and  _136
REMARK   61  A    between atoms: _136  and  _137
REMARK   62  A    between atoms: _142  and  _144
REMARK   63  A    between atoms: _144  and  _145
REMARK   64  A    between atoms: _144  and  _147
REMARK   65  A    between atoms: _147  and  _148
REMARK   66  A    between atoms: _151  and  _153
REMARK   67  A    between atoms: _153  and  _154
REMARK   68  A    between atoms: _153  and  _156
REMARK   69  A    between atoms: _156  and  _157
REMARK   70  A    between atoms: _160  and  _162
REMARK   71  A    between atoms: _162  and  _163
REMARK   72  A    between atoms: _162  and  _165
REMARK   73  A    between atoms: _165  and  _166
REMARK   74  A    between atoms: _166  and  _167
REMARK   75  A    between atoms: _170  and  _172
REMARK   76  A    between atoms: _172  and  _173
REMARK   77  A    between atoms: _172  and  _175
REMARK   78  A    between atoms: _175  and  _176
REMARK   79  A    between atoms: _176  and  _177
REMARK   80  A    between atoms: _179  and  _181
REMARK   81  A    between atoms: _181  and  _182
REMARK   82  A    between atoms: _181  and  _184
REMARK   83  A    between atoms: _184  and  _185
REMARK   84  A    between atoms: _187  and  _189
REMARK   85  A    between atoms: _189  and  _190
REMARK   86  A    between atoms: _189  and  _192
REMARK   87  A    between atoms: _192  and  _193
REMARK   88  A    between atoms: _198  and  _200
REMARK   89  A    between atoms: _200  and  _201
REMARK   90  A    between atoms: _204  and  _206
REMARK   91  A    between atoms: _206  and  _207
REMARK   92  A    between atoms: _206  and  _209
REMARK   93  A    between atoms: _209  and  _210
REMARK   94  A    between atoms: _213  and  _215
REMARK   95  A    between atoms: _215  and  _216
REMARK   96  A    between atoms: _215  and  _218
REMARK   97  A    between atoms: _221  and  _223
REMARK   98  A    between atoms: _223  and  _224
REMARK   99  A    between atoms: _227  and  _228
REMARK  100  A    between atoms: _233  and  _235
REMARK  101  A    between atoms: _235  and  _236
REMARK  102  A    between atoms: _235  and  _238
REMARK  103  A    between atoms: _238  and  _239
REMARK  104  A    between atoms: _241  and  _243
REMARK  105  A    between atoms: _243  and  _244
REMARK  106  A    between atoms: _243  and  _246
REMARK  107  A    between atoms: _246  and  _247
REMARK  108  A    between atoms: _250  and  _252
REMARK  109  A    between atoms: _252  and  _253
REMARK  110  A    between atoms: _252  and  _255
REMARK  111  A    between atoms: _255  and  _256
REMARK  112  A    between atoms: _256  and  _257
REMARK  113  A    between atoms: _257  and  _258
REMARK  114  A    between atoms: _267  and  _269
REMARK  115  A    between atoms: _269  and  _270
REMARK  116  A    between atoms: _269  and  _272
REMARK  117  A    between atoms: _272  and  _273
REMARK  118  A    between atoms: _276  and  _278
REMARK  119  A    between atoms: _278  and  _279
REMARK  120  A    between atoms: _278  and  _281
REMARK  121  A    between atoms: _281  and  _282
REMARK  122  A    between atoms: _285  and  _286
REMARK  123  A    between atoms: _291  and  _293
REMARK  124  A    between atoms: _293  and  _294
REMARK  125  A    between atoms: _296  and  _298
REMARK  126  A    between atoms: _298  and  _299
REMARK  127  A    between atoms: _298  and  _301
REMARK  128  A    between atoms: _304  and  _306
REMARK  129  A    between atoms: _306  and  _307
REMARK  130  A    between atoms: _309  and  _311
REMARK  131  A    between atoms: _311  and  _312
REMARK  132  A    between atoms: _315  and  _317
REMARK  133  A    between atoms: _317  and  _318
REMARK  134  A    between atoms: _317  and  _320
REMARK  135  A    between atoms: _320  and  _321
REMARK  136  A    between atoms: _321  and  _322
REMARK  137  A    between atoms: _327  and  _329
REMARK  138  A    between atoms: _329  and  _330
REMARK  139  A    between atoms: _332  and  _334
REMARK  140  A    between atoms: _334  and  _335
REMARK  141  A    between atoms: _337  and  _339
REMARK  142  A    between atoms: _339  and  _340
REMARK  143  A    between atoms: _339  and  _342
REMARK  144  A    between atoms: _342  and  _343
REMARK  145  A    between atoms: _346  and  _348
REMARK  146  A    between atoms: _348  and  _349
REMARK  147  A    between atoms: _348  and  _351
REMARK  148  A    between atoms: _354  and  _356
REMARK  149  A    between atoms: _356  and  _357
REMARK  150  A    between atoms: _359  and  _361
REMARK  151  A    between atoms: _361  and  _362
REMARK  152  A    between atoms: _361  and  _364
REMARK  153  A    between atoms: _364  and  _365
REMARK  154  A    between atoms: _365  and  _366
REMARK  155  A    between atoms: _366  and  _367
REMARK  156  A    between atoms: _376  and  _378
REMARK  157  A    between atoms: _378  and  _379
REMARK  158  A    between atoms: _378  and  _381
REMARK  159  A    between atoms: _381  and  _382
REMARK  160  A    between atoms: _384  and  _386
REMARK  161  A    between atoms: _386  and  _387
REMARK  162  A    between atoms: _386  and  _389
REMARK  163  A    between atoms: _389  and  _390
REMARK  164  A    between atoms: _393  and  _395
REMARK  165  A    between atoms: _395  and  _396
REMARK  166  A    between atoms: _395  and  _398
REMARK  167  A    between atoms: _398  and  _399
REMARK  168  A    between atoms: _404  and  _405
REMARK  169  A    between atoms: _407  and  _409
REMARK  170  A    between atoms: _409  and  _410
REMARK  171  A    between atoms: _409  and  _412
REMARK  172  A    between atoms: _412  and  _413
REMARK  173  A    between atoms: _416  and  _418
REMARK  174  A    between atoms: _418  and  _419
REMARK  175  A    between atoms: _422  and  _424
REMARK  176  A    between atoms: _424  and  _425
REMARK  177  A    between atoms: _424  and  _427
REMARK  178  A    between atoms: _427  and  _428
REMARK  179  A    between atoms: _431  and  _433
REMARK  180  A    between atoms: _433  and  _434
REMARK  181  A    between atoms: _433  and  _436
REMARK  182  A    between atoms: _436  and  _437
REMARK  183  A    between atoms: _441  and  _442
REMARK  184  A    between atoms: _447  and  _449
REMARK  185  A    between atoms: _449  and  _450
REMARK  186  A    between atoms: _449  and  _452
REMARK  187  A    between atoms: _452  and  _453
REMARK  188  A    between atoms: _453  and  _454
REMARK  189  A    between atoms: _457  and  _459
REMARK  190  A    between atoms: _459  and  _460
REMARK  191  A    between atoms: _459  and  _462
REMARK  192  A    between atoms: _462  and  _463
REMARK  193  A    between atoms: _466  and  _468
REMARK  194  A    between atoms: _468  and  _469
REMARK  195  A    between atoms: _468  and  _471
REMARK  196  A    between atoms: _471  and  _472
REMARK  197  A    between atoms: _477  and  _479
REMARK  198  A    between atoms: _479  and  _480
REMARK  199  A    between atoms: _479  and  _482
REMARK  200  A    between atoms: _482  and  _483
REMARK  201  A    between atoms: _483  and  _484
REMARK  202  A    between atoms: _484  and  _485
REMARK  203  A    between atoms: _485  and  _486
REMARK  204  A    between atoms: _490  and  _492
REMARK  205  A    between atoms: _492  and  _493
REMARK  206  A    between atoms: _492  and  _495
REMARK  207  A    between atoms: _495  and  _496
REMARK                            x       y       z     vdW  Elec       q    Type
REMARK                         _______ _______ _______ _____ _____    ______ ____
ROOT
ATOM      1  CA  LYS A   1      19.410  -8.881  17.641  0.00  0.00    +0.145 C 
ENDROOT
BRANCH   1   2
ATOM      2  C   LYS A   1      18.390  -8.339  18.648  0.00  0.00    +0.238 C 
ATOM      3  O   LYS A   1      18.551  -8.497  19.860  0.00  0.00    -0.274 OA
ATOM      4  N   ILE A   2      17.349  -7.681  18.144  0.00  0.00    -0.298 N 
ATOM      5  H   ILE A   2      17.266  -7.561  17.114  0.00  0.00    +0.150 HD
BRANCH   4   6
ATOM      6  CA  ILE A   2      16.326  -7.128  19.018  0.00  0.00    +0.137 C 
BRANCH   6   7
ATOM      7  C   ILE A   2      15.578  -8.238  19.749  0.00  0.00    +0.227 C 
ATOM      8  O   ILE A   2      15.382  -8.157  20.962  0.00  0.00    -0.286 OA
ENDBRANCH   6   7
BRANCH   6   9
ATOM      9  CB  ILE A   2      15.346  -6.241  18.211  0.00  0.00    +0.026 C 
ATOM     10  CG2 ILE A   2      14.127  -5.897  19.043  0.00  0.00    +0.002 C 
BRANCH   9  11
ATOM     11  CG1 ILE A   2      16.069  -4.965  17.773  0.00  0.00    +0.002 C 
ATOM     12  CD1 ILE A   2      15.302  -4.130  16.767  0.00  0.00    +0.000 C 
ENDBRANCH   9  11
ENDBRANCH   6   9
ENDBRANCH   4   6
ENDBRANCH   1   2
BRANCH   1  13
ATOM     13  N   LYS A   1      18.775  -9.438  16.452  0.00  0.00    -0.238 NA
ATOM     14  H   LYS A   1      18.948  -8.993  15.528  0.00  0.00    +0.142 HD
ENDBRANCH   1  13
BRANCH   1  15
ATOM     15  CB  LYS A   1      20.383  -7.764  17.239  0.00  0.00    +0.026 C 
BRANCH  15  16
ATOM     16  CG  LYS A   1      21.566  -8.235  16.401  0.00  0.00    -0.000 C 
BRANCH  16  17
ATOM     17  CD  LYS A   1      22.542  -7.090  16.173  0.00  0.00    -0.024 C 
BRANCH  17  18
ATOM     18  CE  LYS A   1      23.776  -7.536  15.408  0.00  0.00    -0.086 C 
BRANCH  18  19
ATOM     19  NZ  LYS A   1      24.683  -6.381  15.150  0.00  0.00    +0.380 N 
ATOM     20  HZ1 LYS A   1      24.980  -5.966  16.056  0.00  0.00    -0.089 HD
ATOM     21  HZ2 LYS A   1      25.519  -6.709  14.626  0.00  0.00    -0.089 HD
ATOM     22  HZ3 LYS A   1      24.179  -5.665  14.588  0.00  0.00    -0.089 HD
ENDBRANCH  18  19
ENDBRANCH  17  18
ENDBRANCH  16  17
ENDBRANCH  15  16
ENDBRANCH   1  15
TORSDOF 11
REMARK  Name = ../refined-set-2016/3g1d/3g1d_pocket.pdb
REMARK  207 active torsions:
REMARK  status: ('A' for Active; 'I' for Inactive)
REMARK    1  A    between atoms: _1  and  _3
REMARK    2  A    between atoms: _3  and  _4
REMARK    3  A    between atoms: _3  and  _6
REMARK    4  A    between atoms: _6  and  _7
REMARK    5  A    between atoms: _10  and  _12
REMARK    6  A    between atoms: _12  and  _13
REMARK    7  A    between atoms: _12  and  _15
REMARK    8  A    between atoms: _15  and  _16
REMARK    9  A    between atoms: _19  and  _21
REMARK   10  A    between atoms: _21  and  _22
REMARK   11  A    between atoms: _25  and  _27
REMARK   12  A    between atoms: _27  and  _28
REMARK   13  A    between atoms: _27  and  _30
REMARK   14  A    between atoms: _30  and  _31
REMARK   15  A    between atoms: _31  and  _32
REMARK   16  A    between atoms: _34  and  _36
REMARK   17  A    between atoms: _36  and  _37
REMARK   18  A    between atoms: _36  and  _39
REMARK   19  A    between atoms: _39  and  _40
REMARK   20  A    between atoms: _43  and  _45
REMARK   21  A    between atoms: _45  and  _46
REMARK   22  A    between atoms: _45  and  _48
REMARK   23  A    between atoms: _48  and  _49
REMARK   24  A    between atoms: _49  and  _50
REMARK   25  A    between atoms: _50  and  _51
REMARK   26  A    between atoms: _51  and  _52
REMARK   27  A    between atoms: _56  and  _58
REMARK   28  A    between atoms: _58  and  _59
REMARK   29  A    between atoms: _58  and  _61
REMARK   30  A    between atoms: _61  and  _62
REMARK   31  A    between atoms: _65  and  _67
REMARK   32  A    between atoms: _67  and  _68
REMARK   33  A    between atoms: _70  and  _72
REMARK   34  A    between atoms: _72  and  _73
REMARK   35  A    between atoms: _72  and  _75
REMARK   36  A    between atoms: _75  and  _76
REMARK   37  A    between atoms: _81  and  _82
REMARK   38  A    between atoms: _85  and  _86
REMARK   39  A    between atoms: _91  and  _93
REMARK   40  A    between atoms: _93  and  _94
REMARK   41  A    between atoms: _93  and  _96
REMARK   42  A    between atoms: _96  and  _97
REMARK   43  A    between atoms: _100  and  _102
REMARK   44  A    between atoms: _102  and  _103
REMARK   45  A    between atoms: _102  and  _105
REMARK   46  A    between atoms: _105  and  _106
REMARK   47  A    between atoms: _109  and  _111
REMARK   48  A    between atoms: _111  and  _112
REMARK   49  A    between atoms: _111  and  _114
REMARK   50  A    between atoms: _114  and  _115
REMARK   51  A    between atoms: _115  and  _116
REMARK   52  A    between atoms: _116  and  _117
REMARK   53  A    between atoms: _117  and  _118
REMARK   54  A    between atoms: _122  and  _124
REMARK   55  A    between atoms: _124  and  _125
REMARK   56  A    between atoms: _124  and  _127
REMARK   57  A    between atoms: _127  and  _128
REMARK   58  A    between atoms: _131  and  _133
REMARK   59  A    between atoms: _133  and  _134
REMARK   60  A    between atoms: _133  and  _136
REMARK   61  A    between atoms: _136  and  _137
REMARK   62  A    between atoms: _142  and  _144
REMARK   63  A    between atoms: _144  and  _145
REMARK   64  A    between atoms: _144  and  _147
REMARK   65  A    between atoms: _147  and  _148
REMARK   66  A    between atoms: _151  and  _153
REMARK   67  A    between atoms: _153  and  _154
REMARK   68  A    between atoms: _153  and  _156
REMARK   69  A    between atoms: _156  and  _157
REMARK   70  A    between atoms: _160  and  _162
REMARK   71  A    between atoms: _162  and  _163
REMARK   72  A    between atoms: _162  and  _165
REMARK   73  A    between atoms: _165  and  _166
REMARK   74  A    between atoms: _166  and  _167
REMARK   75  A    between atoms: _170  and  _172
REMARK   76  A    between atoms: _172  and  _173
REMARK   77  A    between atoms: _172  and  _175
REMARK   78  A    between atoms: _175  and  _176
REMARK   79  A    between atoms: _176  and  _177
REMARK   80  A    between atoms: _179  and  _181
REMARK   81  A    between atoms: _181  and  _182
REMARK   82  A    between atoms: _181  and  _184
REMARK   83  A    between atoms: _184  and  _185
REMARK   84  A    between atoms: _187  and  _189
REMARK   85  A    between atoms: _189  and  _190
REMARK   86  A    between atoms: _189  and  _192
REMARK   87  A    between atoms: _192  and  _193
REMARK   88  A    between atoms: _198  and  _200
REMARK   89  A    between atoms: _200  and  _201
REMARK   90  A    between atoms: _204  and  _206
REMARK   91  A    between atoms: _206  and  _207
REMARK   92  A    between atoms: _206  and  _209
REMARK   93  A    between atoms: _209  and  _210
REMARK   94  A    between atoms: _213  and  _215
REMARK   95  A    between atoms: _215  and  _216
REMARK   96  A    between atoms: _215  and  _218
REMARK   97  A    between atoms: _221  and  _223
REMARK   98  A    between atoms: _223  and  _224
REMARK   99  A    between atoms: _227  and  _228
REMARK  100  A    between atoms: _233  and  _235
REMARK  101  A    between atoms: _235  and  _236
REMARK  102  A    between atoms: _235  and  _238
REMARK  103  A    between atoms: _238  and  _239
REMARK  104  A    between atoms: _241  and  _243
REMARK  105  A    between atoms: _243  and  _244
REMARK  106  A    between atoms: _243  and  _246
REMARK  107  A    between atoms: _246  and  _247
REMARK  108  A    between atoms: _250  and  _252
REMARK  109  A    between atoms: _252  and  _253
REMARK  110  A    between atoms: _252  and  _255
REMARK  111  A    between atoms: _255  and  _256
REMARK  112  A    between atoms: _256  and  _257
REMARK  113  A    between atoms: _257  and  _258
REMARK  114  A    between atoms: _267  and  _269
REMARK  115  A    between atoms: _269  and  _270
REMARK  116  A    between atoms: _269  and  _272
REMARK  117  A    between atoms: _272  and  _273
REMARK  118  A    between atoms: _276  and  _278
REMARK  119  A    between atoms: _278  and  _279
REMARK  120  A    between atoms: _278  and  _281
REMARK  121  A    between atoms: _281  and  _282
REMARK  122  A    between atoms: _285  and  _286
REMARK  123  A    between atoms: _291  and  _293
REMARK  124  A    between atoms: _293  and  _294
REMARK  125  A    between atoms: _296  and  _298
REMARK  126  A    between atoms: _298  and  _299
REMARK  127  A    between atoms: _298  and  _301
REMARK  128  A    between atoms: _304  and  _306
REMARK  129  A    between atoms: _306  and  _307
REMARK  130  A    between atoms: _309  and  _311
REMARK  131  A    between atoms: _311  and  _312
REMARK  132  A    between atoms: _315  and  _317
REMARK  133  A    between atoms: _317  and  _318
REMARK  134  A    between atoms: _317  and  _320
REMARK  135  A    between atoms: _320  and  _321
REMARK  136  A    between atoms: _321  and  _322
REMARK  137  A    between atoms: _327  and  _329
REMARK  138  A    between atoms: _329  and  _330
REMARK  139  A    between atoms: _332  and  _334
REMARK  140  A    between atoms: _334  and  _335
REMARK  141  A    between atoms: _337  and  _339
REMARK  142  A    between atoms: _339  and  _340
REMARK  143  A    between atoms: _339  and  _342
REMARK  144  A    between atoms: _342  and  _343
REMARK  145  A    between atoms: _346  and  _348
REMARK  146  A    between atoms: _348  and  _349
REMARK  147  A    between atoms: _348  and  _351
REMARK  148  A    between atoms: _354  and  _356
REMARK  149  A    between atoms: _356  and  _357
REMARK  150  A    between atoms: _359  and  _361
REMARK  151  A    between atoms: _361  and  _362
REMARK  152  A    between atoms: _361  and  _364
REMARK  153  A    between atoms: _364  and  _365
REMARK  154  A    between atoms: _365  and  _366
REMARK  155  A    between atoms: _366  and  _367
REMARK  156  A    between atoms: _376  and  _378
REMARK  157  A    between atoms: _378  and  _379
REMARK  158  A    between atoms: _378  and  _381
REMARK  159  A    between atoms: _381  and  _382
REMARK  160  A    between atoms: _384  and  _386
REMARK  161  A    between atoms: _386  and  _387
REMARK  162  A    between atoms: _386  and  _389
REMARK  163  A    between atoms: _389  and  _390
REMARK  164  A    between atoms: _393  and  _395
REMARK  165  A    between atoms: _395  and  _396
REMARK  166  A    between atoms: _395  and  _398
REMARK  167  A    between atoms: _398  and  _399
REMARK  168  A    between atoms: _404  and  _405
REMARK  169  A    between atoms: _407  and  _409
REMARK  170  A    between atoms: _409  and  _410
REMARK  171  A    between atoms: _409  and  _412
REMARK  172  A    between atoms: _412  and  _413
REMARK  173  A    between atoms: _416  and  _418
REMARK  174  A    between atoms: _418  and  _419
REMARK  175  A    between atoms: _422  and  _424
REMARK  176  A    between atoms: _424  and  _425
REMARK  177  A    between atoms: _424  and  _427
REMARK  178  A    between atoms: _427  and  _428
REMARK  179  A    between atoms: _431  and  _433
REMARK  180  A    between atoms: _433  and  _434
REMARK  181  A    between atoms: _433  and  _436
REMARK  182  A    between atoms: _436  and  _437
REMARK  183  A    between atoms: _441  and  _442
REMARK  184  A    between atoms: _447  and  _449
REMARK  185  A    between atoms: _449  and  _450
REMARK  186  A    between atoms: _449  and  _452
REMARK  187  A    between atoms: _452  and  _453
REMARK  188  A    between atoms: _453  and  _454
REMARK  189  A    between atoms: _457  and  _459
REMARK  190  A    between atoms: _459  and  _460
REMARK  191  A    between atoms: _459  and  _462
REMARK  192  A    between atoms: _462  and  _463
REMARK  193  A    between atoms: _466  and  _468
REMARK  194  A    between atoms: _468  and  _469
REMARK  195  A    between atoms: _468  and  _471
REMARK  196  A    between atoms: _471  and  _472
REMARK  197  A    between atoms: _477  and  _479
REMARK  198  A    between atoms: _479  and  _480
REMARK  199  A    between atoms: _479  and  _482
REMARK  200  A    between atoms: _482  and  _483
REMARK  201  A    between atoms: _483  and  _484
REMARK  202  A    between atoms: _484  and  _485
REMARK  203  A    between atoms: _485  and  _486
REMARK  204  A    between atoms: _490  and  _492
REMARK  205  A    between atoms: _492  and  _493
REMARK  206  A    between atoms: _492  and  _495
REMARK  207  A    between atoms: _495  and  _496
REMARK                            x       y       z     vdW  Elec       q    Type
REMARK                         _______ _______ _______ _____ _____    ______ ____
ROOT
ATOM      1  O   HOH     1      22.255  -0.366  18.291  0.00  0.00    +0.000 OA
ENDROOT
TORSDOF 0
REMARK  Name = ../refined-set-2016/3g1d/3g1d_pocket.pdb
REMARK  207 active torsions:
REMARK  status: ('A' for Active; 'I' for Inactive)
REMARK    1  A    between atoms: _1  and  _3
REMARK    2  A    between atoms: _3  and  _4
REMARK    3  A    between atoms: _3  and  _6
REMARK    4  A    between atoms: _6  and  _7
REMARK    5  A    between atoms: _10  and  _12
REMARK    6  A    between atoms: _12  and  _13
REMARK    7  A    between atoms: _12  and  _15
REMARK    8  A    between atoms: _15  and  _16
REMARK    9  A    between atoms: _19  and  _21
REMARK   10  A    between atoms: _21  and  _22
REMARK   11  A    between atoms: _25  and  _27
REMARK   12  A    between atoms: _27  and  _28
REMARK   13  A    between atoms: _27  and  _30
REMARK   14  A    between atoms: _30  and  _31
REMARK   15  A    between atoms: _31  and  _32
REMARK   16  A    between atoms: _34  and  _36
REMARK   17  A    between atoms: _36  and  _37
REMARK   18  A    between atoms: _36  and  _39
REMARK   19  A    between atoms: _39  and  _40
REMARK   20  A    between atoms: _43  and  _45
REMARK   21  A    between atoms: _45  and  _46
REMARK   22  A    between atoms: _45  and  _48
REMARK   23  A    between atoms: _48  and  _49
REMARK   24  A    between atoms: _49  and  _50
REMARK   25  A    between atoms: _50  and  _51
REMARK   26  A    between atoms: _51  and  _52
REMARK   27  A    between atoms: _56  and  _58
REMARK   28  A    between atoms: _58  and  _59
REMARK   29  A    between atoms: _58  and  _61
REMARK   30  A    between atoms: _61  and  _62
REMARK   31  A    between atoms: _65  and  _67
REMARK   32  A    between atoms: _67  and  _68
REMARK   33  A    between atoms: _70  and  _72
REMARK   34  A    between atoms: _72  and  _73
REMARK   35  A    between atoms: _72  and  _75
REMARK   36  A    between atoms: _75  and  _76
REMARK   37  A    between atoms: _81  and  _82
REMARK   38  A    between atoms: _85  and  _86
REMARK   39  A    between atoms: _91  and  _93
REMARK   40  A    between atoms: _93  and  _94
REMARK   41  A    between atoms: _93  and  _96
REMARK   42  A    between atoms: _96  and  _97
REMARK   43  A    between atoms: _100  and  _102
REMARK   44  A    between atoms: _102  and  _103
REMARK   45  A    between atoms: _102  and  _105
REMARK   46  A    between atoms: _105  and  _106
REMARK   47  A    between atoms: _109  and  _111
REMARK   48  A    between atoms: _111  and  _112
REMARK   49  A    between atoms: _111  and  _114
REMARK   50  A    between atoms: _114  and  _115
REMARK   51  A    between atoms: _115  and  _116
REMARK   52  A    between atoms: _116  and  _117
REMARK   53  A    between atoms: _117  and  _118
REMARK   54  A    between atoms: _122  and  _124
REMARK   55  A    between atoms: _124  and  _125
REMARK   56  A    between atoms: _124  and  _127
REMARK   57  A    between atoms: _127  and  _128
REMARK   58  A    between atoms: _131  and  _133
REMARK   59  A    between atoms: _133  and  _134
REMARK   60  A    between atoms: _133  and  _136
REMARK   61  A    between atoms: _136  and  _137
REMARK   62  A    between atoms: _142  and  _144
REMARK   63  A    between atoms: _144  and  _145
REMARK   64  A    between atoms: _144  and  _147
REMARK   65  A    between atoms: _147  and  _148
REMARK   66  A    between atoms: _151  and  _153
REMARK   67  A    between atoms: _153  and  _154
REMARK   68  A    between atoms: _153  and  _156
REMARK   69  A    between atoms: _156  and  _157
REMARK   70  A    between atoms: _160  and  _162
REMARK   71  A    between atoms: _162  and  _163
REMARK   72  A    between atoms: _162  and  _165
REMARK   73  A    between atoms: _165  and  _166
REMARK   74  A    between atoms: _166  and  _167
REMARK   75  A    between atoms: _170  and  _172
REMARK   76  A    between atoms: _172  and  _173
REMARK   77  A    between atoms: _172  and  _175
REMARK   78  A    between atoms: _175  and  _176
REMARK   79  A    between atoms: _176  and  _177
REMARK   80  A    between atoms: _179  and  _181
REMARK   81  A    between atoms: _181  and  _182
REMARK   82  A    between atoms: _181  and  _184
REMARK   83  A    between atoms: _184  and  _185
REMARK   84  A    between atoms: _187  and  _189
REMARK   85  A    between atoms: _189  and  _190
REMARK   86  A    between atoms: _189  and  _192
REMARK   87  A    between atoms: _192  and  _193
REMARK   88  A    between atoms: _198  and  _200
REMARK   89  A    between atoms: _200  and  _201
REMARK   90  A    between atoms: _204  and  _206
REMARK   91  A    between atoms: _206  and  _207
REMARK   92  A    between atoms: _206  and  _209
REMARK   93  A    between atoms: _209  and  _210
REMARK   94  A    between atoms: _213  and  _215
REMARK   95  A    between atoms: _215  and  _216
REMARK   96  A    between atoms: _215  and  _218
REMARK   97  A    between atoms: _221  and  _223
REMARK   98  A    between atoms: _223  and  _224
REMARK   99  A    between atoms: _227  and  _228
REMARK  100  A    between atoms: _233  and  _235
REMARK  101  A    between atoms: _235  and  _236
REMARK  102  A    between atoms: _235  and  _238
REMARK  103  A    between atoms: _238  and  _239
REMARK  104  A    between atoms: _241  and  _243
REMARK  105  A    between atoms: _243  and  _244
REMARK  106  A    between atoms: _243  and  _246
REMARK  107  A    between atoms: _246  and  _247
REMARK  108  A    between atoms: _250  and  _252
REMARK  109  A    between atoms: _252  and  _253
REMARK  110  A    between atoms: _252  and  _255
REMARK  111  A    between atoms: _255  and  _256
REMARK  112  A    between atoms: _256  and  _257
REMARK  113  A    between atoms: _257  and  _258
REMARK  114  A    between atoms: _267  and  _269
REMARK  115  A    between atoms: _269  and  _270
REMARK  116  A    between atoms: _269  and  _272
REMARK  117  A    between atoms: _272  and  _273
REMARK  118  A    between atoms: _276  and  _278
REMARK  119  A    between atoms: _278  and  _279
REMARK  120  A    between atoms: _278  and  _281
REMARK  121  A    between atoms: _281  and  _282
REMARK  122  A    between atoms: _285  and  _286
REMARK  123  A    between atoms: _291  and  _293
REMARK  124  A    between atoms: _293  and  _294
REMARK  125  A    between atoms: _296  and  _298
REMARK  126  A    between atoms: _298  and  _299
REMARK  127  A    between atoms: _298  and  _301
REMARK  128  A    between atoms: _304  and  _306
REMARK  129  A    between atoms: _306  and  _307
REMARK  130  A    between atoms: _309  and  _311
REMARK  131  A    between atoms: _311  and  _312
REMARK  132  A    between atoms: _315  and  _317
REMARK  133  A    between atoms: _317  and  _318
REMARK  134  A    between atoms: _317  and  _320
REMARK  135  A    between atoms: _320  and  _321
REMARK  136  A    between atoms: _321  and  _322
REMARK  137  A    between atoms: _327  and  _329
REMARK  138  A    between atoms: _329  and  _330
REMARK  139  A    between atoms: _332  and  _334
REMARK  140  A    between atoms: _334  and  _335
REMARK  141  A    between atoms: _337  and  _339
REMARK  142  A    between atoms: _339  and  _340
REMARK  143  A    between atoms: _339  and  _342
REMARK  144  A    between atoms: _342  and  _343
REMARK  145  A    between atoms: _346  and  _348
REMARK  146  A    between atoms: _348  and  _349
REMARK  147  A    between atoms: _348  and  _351
REMARK  148  A    between atoms: _354  and  _356
REMARK  149  A    between atoms: _356  and  _357
REMARK  150  A    between atoms: _359  and  _361
REMARK  151  A    between atoms: _361  and  _362
REMARK  152  A    between atoms: _361  and  _364
REMARK  153  A    between atoms: _364  and  _365
REMARK  154  A    between atoms: _365  and  _366
REMARK  155  A    between atoms: _366  and  _367
REMARK  156  A    between atoms: _376  and  _378
REMARK  157  A    between atoms: _378  and  _379
REMARK  158  A    between atoms: _378  and  _381
REMARK  159  A    between atoms: _381  and  _382
REMARK  160  A    between atoms: _384  and  _386
REMARK  161  A    between atoms: _386  and  _387
REMARK  162  A    between atoms: _386  and  _389
REMARK  163  A    between atoms: _389  and  _390
REMARK  164  A    between atoms: _393  and  _395
REMARK  165  A    between atoms: _395  and  _396
REMARK  166  A    between atoms: _395  and  _398
REMARK  167  A    between atoms: _398  and  _399
REMARK  168  A    between atoms: _404  and  _405
REMARK  169  A    between atoms: _407  and  _409
REMARK  170  A    between atoms: _409  and  _410
REMARK  171  A    between atoms: _409  and  _412
REMARK  172  A    between atoms: _412  and  _413
REMARK  173  A    between atoms: _416  and  _418
REMARK  174  A    between atoms: _418  and  _419
REMARK  175  A    between atoms: _422  and  _424
REMARK  176  A    between atoms: _424  and  _425
REMARK  177  A    between atoms: _424  and  _427
REMARK  178  A    between atoms: _427  and  _428
REMARK  179  A    between atoms: _431  and  _433
REMARK  180  A    between atoms: _433  and  _434
REMARK  181  A    between atoms: _433  and  _436
REMARK  182  A    between atoms: _436  and  _437
REMARK  183  A    between atoms: _441  and  _442
REMARK  184  A    between atoms: _447  and  _449
REMARK  185  A    between atoms: _449  and  _450
REMARK  186  A    between atoms: _449  and  _452
REMARK  187  A    between atoms: _452  and  _453
REMARK  188  A    between atoms: _453  and  _454
REMARK  189  A    between atoms: _457  and  _459
REMARK  190  A    between atoms: _459  and  _460
REMARK  191  A    between atoms: _459  and  _462
REMARK  192  A    between atoms: _462  and  _463
REMARK  193  A    between atoms: _466  and  _468
REMARK  194  A    between atoms: _468  and  _469
REMARK  195  A    between atoms: _468  and  _471
REMARK  196  A    between atoms: _471  and  _472
REMARK  197  A    between atoms: _477  and  _479
REMARK  198  A    between atoms: _479  and  _480
REMARK  199  A    between atoms: _479  and  _482
REMARK  200  A    between atoms: _482  and  _483
REMARK  201  A    between atoms: _483  and  _484
REMARK  202  A    between atoms: _484  and  _485
REMARK  203  A    between atoms: _485  and  _486
REMARK  204  A    between atoms: _490  and  _492
REMARK  205  A    between atoms: _492  and  _493
REMARK  206  A    between atoms: _492  and  _495
REMARK  207  A    between atoms: _495  and  _496
REMARK                            x       y       z     vdW  Elec       q    Type
REMARK                         _______ _______ _______ _____ _____    ______ ____
ROOT
ATOM      1  O   HOH     1      24.508  -3.338  11.996  0.00  0.00    +0.000 OA
ENDROOT
TORSDOF 0
REMARK  Name = ../refined-set-2016/3g1d/3g1d_pocket.pdb
REMARK  207 active torsions:
REMARK  status: ('A' for Active; 'I' for Inactive)
REMARK    1  A    between atoms: _1  and  _3
REMARK    2  A    between atoms: _3  and  _4
REMARK    3  A    between atoms: _3  and  _6
REMARK    4  A    between atoms: _6  and  _7
REMARK    5  A    between atoms: _10  and  _12
REMARK    6  A    between atoms: _12  and  _13
REMARK    7  A    between atoms: _12  and  _15
REMARK    8  A    between atoms: _15  and  _16
REMARK    9  A    between atoms: _19  and  _21
REMARK   10  A    between atoms: _21  and  _22
REMARK   11  A    between atoms: _25  and  _27
REMARK   12  A    between atoms: _27  and  _28
REMARK   13  A    between atoms: _27  and  _30
REMARK   14  A    between atoms: _30  and  _31
REMARK   15  A    between atoms: _31  and  _32
REMARK   16  A    between atoms: _34  and  _36
REMARK   17  A    between atoms: _36  and  _37
REMARK   18  A    between atoms: _36  and  _39
REMARK   19  A    between atoms: _39  and  _40
REMARK   20  A    between atoms: _43  and  _45
REMARK   21  A    between atoms: _45  and  _46
REMARK   22  A    between atoms: _45  and  _48
REMARK   23  A    between atoms: _48  and  _49
REMARK   24  A    between atoms: _49  and  _50
REMARK   25  A    between atoms: _50  and  _51
REMARK   26  A    between atoms: _51  and  _52
REMARK   27  A    between atoms: _56  and  _58
REMARK   28  A    between atoms: _58  and  _59
REMARK   29  A    between atoms: _58  and  _61
REMARK   30  A    between atoms: _61  and  _62
REMARK   31  A    between atoms: _65  and  _67
REMARK   32  A    between atoms: _67  and  _68
REMARK   33  A    between atoms: _70  and  _72
REMARK   34  A    between atoms: _72  and  _73
REMARK   35  A    between atoms: _72  and  _75
REMARK   36  A    between atoms: _75  and  _76
REMARK   37  A    between atoms: _81  and  _82
REMARK   38  A    between atoms: _85  and  _86
REMARK   39  A    between atoms: _91  and  _93
REMARK   40  A    between atoms: _93  and  _94
REMARK   41  A    between atoms: _93  and  _96
REMARK   42  A    between atoms: _96  and  _97
REMARK   43  A    between atoms: _100  and  _102
REMARK   44  A    between atoms: _102  and  _103
REMARK   45  A    between atoms: _102  and  _105
REMARK   46  A    between atoms: _105  and  _106
REMARK   47  A    between atoms: _109  and  _111
REMARK   48  A    between atoms: _111  and  _112
REMARK   49  A    between atoms: _111  and  _114
REMARK   50  A    between atoms: _114  and  _115
REMARK   51  A    between atoms: _115  and  _116
REMARK   52  A    between atoms: _116  and  _117
REMARK   53  A    between atoms: _117  and  _118
REMARK   54  A    between atoms: _122  and  _124
REMARK   55  A    between atoms: _124  and  _125
REMARK   56  A    between atoms: _124  and  _127
REMARK   57  A    between atoms: _127  and  _128
REMARK   58  A    between atoms: _131  and  _133
REMARK   59  A    between atoms: _133  and  _134
REMARK   60  A    between atoms: _133  and  _136
REMARK   61  A    between atoms: _136  and  _137
REMARK   62  A    between atoms: _142  and  _144
REMARK   63  A    between atoms: _144  and  _145
REMARK   64  A    between atoms: _144  and  _147
REMARK   65  A    between atoms: _147  and  _148
REMARK   66  A    between atoms: _151  and  _153
REMARK   67  A    between atoms: _153  and  _154
REMARK   68  A    between atoms: _153  and  _156
REMARK   69  A    between atoms: _156  and  _157
REMARK   70  A    between atoms: _160  and  _162
REMARK   71  A    between atoms: _162  and  _163
REMARK   72  A    between atoms: _162  and  _165
REMARK   73  A    between atoms: _165  and  _166
REMARK   74  A    between atoms: _166  and  _167
REMARK   75  A    between atoms: _170  and  _172
REMARK   76  A    between atoms: _172  and  _173
REMARK   77  A    between atoms: _172  and  _175
REMARK   78  A    between atoms: _175  and  _176
REMARK   79  A    between atoms: _176  and  _177
REMARK   80  A    between atoms: _179  and  _181
REMARK   81  A    between atoms: _181  and  _182
REMARK   82  A    between atoms: _181  and  _184
REMARK   83  A    between atoms: _184  and  _185
REMARK   84  A    between atoms: _187  and  _189
REMARK   85  A    between atoms: _189  and  _190
REMARK   86  A    between atoms: _189  and  _192
REMARK   87  A    between atoms: _192  and  _193
REMARK   88  A    between atoms: _198  and  _200
REMARK   89  A    between atoms: _200  and  _201
REMARK   90  A    between atoms: _204  and  _206
REMARK   91  A    between atoms: _206  and  _207
REMARK   92  A    between atoms: _206  and  _209
REMARK   93  A    between atoms: _209  and  _210
REMARK   94  A    between atoms: _213  and  _215
REMARK   95  A    between atoms: _215  and  _216
REMARK   96  A    between atoms: _215  and  _218
REMARK   97  A    between atoms: _221  and  _223
REMARK   98  A    between atoms: _223  and  _224
REMARK   99  A    between atoms: _227  and  _228
REMARK  100  A    between atoms: _233  and  _235
REMARK  101  A    between atoms: _235  and  _236
REMARK  102  A    between atoms: _235  and  _238
REMARK  103  A    between atoms: _238  and  _239
REMARK  104  A    between atoms: _241  and  _243
REMARK  105  A    between atoms: _243  and  _244
REMARK  106  A    between atoms: _243  and  _246
REMARK  107  A    between atoms: _246  and  _247
REMARK  108  A    between atoms: _250  and  _252
REMARK  109  A    between atoms: _252  and  _253
REMARK  110  A    between atoms: _252  and  _255
REMARK  111  A    between atoms: _255  and  _256
REMARK  112  A    between atoms: _256  and  _257
REMARK  113  A    between atoms: _257  and  _258
REMARK  114  A    between atoms: _267  and  _269
REMARK  115  A    between atoms: _269  and  _270
REMARK  116  A    between atoms: _269  and  _272
REMARK  117  A    between atoms: _272  and  _273
REMARK  118  A    between atoms: _276  and  _278
REMARK  119  A    between atoms: _278  and  _279
REMARK  120  A    between atoms: _278  and  _281
REMARK  121  A    between atoms: _281  and  _282
REMARK  122  A    between atoms: _285  and  _286
REMARK  123  A    between atoms: _291  and  _293
REMARK  124  A    between atoms: _293  and  _294
REMARK  125  A    between atoms: _296  and  _298
REMARK  126  A    between atoms: _298  and  _299
REMARK  127  A    between atoms: _298  and  _301
REMARK  128  A    between atoms: _304  and  _306
REMARK  129  A    between atoms: _306  and  _307
REMARK  130  A    between atoms: _309  and  _311
REMARK  131  A    between atoms: _311  and  _312
REMARK  132  A    between atoms: _315  and  _317
REMARK  133  A    between atoms: _317  and  _318
REMARK  134  A    between atoms: _317  and  _320
REMARK  135  A    between atoms: _320  and  _321
REMARK  136  A    between atoms: _321  and  _322
REMARK  137  A    between atoms: _327  and  _329
REMARK  138  A    between atoms: _329  and  _330
REMARK  139  A    between atoms: _332  and  _334
REMARK  140  A    between atoms: _334  and  _335
REMARK  141  A    between atoms: _337  and  _339
REMARK  142  A    between atoms: _339  and  _340
REMARK  143  A    between atoms: _339  and  _342
REMARK  144  A    between atoms: _342  and  _343
REMARK  145  A    between atoms: _346  and  _348
REMARK  146  A    between atoms: _348  and  _349
REMARK  147  A    between atoms: _348  and  _351
REMARK  148  A    between atoms: _354  and  _356
REMARK  149  A    between atoms: _356  and  _357
REMARK  150  A    between atoms: _359  and  _361
REMARK  151  A    between atoms: _361  and  _362
REMARK  152  A    between atoms: _361  and  _364
REMARK  153  A    between atoms: _364  and  _365
REMARK  154  A    between atoms: _365  and  _366
REMARK  155  A    between atoms: _366  and  _367
REMARK  156  A    between atoms: _376  and  _378
REMARK  157  A    between atoms: _378  and  _379
REMARK  158  A    between atoms: _378  and  _381
REMARK  159  A    between atoms: _381  and  _382
REMARK  160  A    between atoms: _384  and  _386
REMARK  161  A    between atoms: _386  and  _387
REMARK  162  A    between atoms: _386  and  _389
REMARK  163  A    between atoms: _389  and  _390
REMARK  164  A    between atoms: _393  and  _395
REMARK  165  A    between atoms: _395  and  _396
REMARK  166  A    between atoms: _395  and  _398
REMARK  167  A    between atoms: _398  and  _399
REMARK  168  A    between atoms: _404  and  _405
REMARK  169  A    between atoms: _407  and  _409
REMARK  170  A    between atoms: _409  and  _410
REMARK  171  A    between atoms: _409  and  _412
REMARK  172  A    between atoms: _412  and  _413
REMARK  173  A    between atoms: _416  and  _418
REMARK  174  A    between atoms: _418  and  _419
REMARK  175  A    between atoms: _422  and  _424
REMARK  176  A    between atoms: _424  and  _425
REMARK  177  A    between atoms: _424  and  _427
REMARK  178  A    between atoms: _427  and  _428
REMARK  179  A    between atoms: _431  and  _433
REMARK  180  A    between atoms: _433  and  _434
REMARK  181  A    between atoms: _433  and  _436
REMARK  182  A    between atoms: _436  and  _437
REMARK  183  A    between atoms: _441  and  _442
REMARK  184  A    between atoms: _447  and  _449
REMARK  185  A    between atoms: _449  and  _450
REMARK  186  A    between atoms: _449  and  _452
REMARK  187  A    between atoms: _452  and  _453
REMARK  188  A    between atoms: _453  and  _454
REMARK  189  A    between atoms: _457  and  _459
REMARK  190  A    between atoms: _459  and  _460
REMARK  191  A    between atoms: _459  and  _462
REMARK  192  A    between atoms: _462  and  _463
REMARK  193  A    between atoms: _466  and  _468
REMARK  194  A    between atoms: _468  and  _469
REMARK  195  A    between atoms: _468  and  _471
REMARK  196  A    between atoms: _471  and  _472
REMARK  197  A    between atoms: _477  and  _479
REMARK  198  A    between atoms: _479  and  _480
REMARK  199  A    between atoms: _479  and  _482
REMARK  200  A    between atoms: _482  and  _483
REMARK  201  A    between atoms: _483  and  _484
REMARK  202  A    between atoms: _484  and  _485
REMARK  203  A    between atoms: _485  and  _486
REMARK  204  A    between atoms: _490  and  _492
REMARK  205  A    between atoms: _492  and  _493
REMARK  206  A    between atoms: _492  and  _495
REMARK  207  A    between atoms: _495  and  _496
REMARK                            x       y       z     vdW  Elec       q    Type
REMARK                         _______ _______ _______ _____ _____    ______ ____
ROOT
ATOM      1  O   HOH     1      22.394   1.877  15.187  0.00  0.00    +0.000 OA
ENDROOT
TORSDOF 0
REMARK  Name = ../refined-set-2016/3g1d/3g1d_pocket.pdb
REMARK  207 active torsions:
REMARK  status: ('A' for Active; 'I' for Inactive)
REMARK    1  A    between atoms: _1  and  _3
REMARK    2  A    between atoms: _3  and  _4
REMARK    3  A    between atoms: _3  and  _6
REMARK    4  A    between atoms: _6  and  _7
REMARK    5  A    between atoms: _10  and  _12
REMARK    6  A    between atoms: _12  and  _13
REMARK    7  A    between atoms: _12  and  _15
REMARK    8  A    between atoms: _15  and  _16
REMARK    9  A    between atoms: _19  and  _21
REMARK   10  A    between atoms: _21  and  _22
REMARK   11  A    between atoms: _25  and  _27
REMARK   12  A    between atoms: _27  and  _28
REMARK   13  A    between atoms: _27  and  _30
REMARK   14  A    between atoms: _30  and  _31
REMARK   15  A    between atoms: _31  and  _32
REMARK   16  A    between atoms: _34  and  _36
REMARK   17  A    between atoms: _36  and  _37
REMARK   18  A    between atoms: _36  and  _39
REMARK   19  A    between atoms: _39  and  _40
REMARK   20  A    between atoms: _43  and  _45
REMARK   21  A    between atoms: _45  and  _46
REMARK   22  A    between atoms: _45  and  _48
REMARK   23  A    between atoms: _48  and  _49
REMARK   24  A    between atoms: _49  and  _50
REMARK   25  A    between atoms: _50  and  _51
REMARK   26  A    between atoms: _51  and  _52
REMARK   27  A    between atoms: _56  and  _58
REMARK   28  A    between atoms: _58  and  _59
REMARK   29  A    between atoms: _58  and  _61
REMARK   30  A    between atoms: _61  and  _62
REMARK   31  A    between atoms: _65  and  _67
REMARK   32  A    between atoms: _67  and  _68
REMARK   33  A    between atoms: _70  and  _72
REMARK   34  A    between atoms: _72  and  _73
REMARK   35  A    between atoms: _72  and  _75
REMARK   36  A    between atoms: _75  and  _76
REMARK   37  A    between atoms: _81  and  _82
REMARK   38  A    between atoms: _85  and  _86
REMARK   39  A    between atoms: _91  and  _93
REMARK   40  A    between atoms: _93  and  _94
REMARK   41  A    between atoms: _93  and  _96
REMARK   42  A    between atoms: _96  and  _97
REMARK   43  A    between atoms: _100  and  _102
REMARK   44  A    between atoms: _102  and  _103
REMARK   45  A    between atoms: _102  and  _105
REMARK   46  A    between atoms: _105  and  _106
REMARK   47  A    between atoms: _109  and  _111
REMARK   48  A    between atoms: _111  and  _112
REMARK   49  A    between atoms: _111  and  _114
REMARK   50  A    between atoms: _114  and  _115
REMARK   51  A    between atoms: _115  and  _116
REMARK   52  A    between atoms: _116  and  _117
REMARK   53  A    between atoms: _117  and  _118
REMARK   54  A    between atoms: _122  and  _124
REMARK   55  A    between atoms: _124  and  _125
REMARK   56  A    between atoms: _124  and  _127
REMARK   57  A    between atoms: _127  and  _128
REMARK   58  A    between atoms: _131  and  _133
REMARK   59  A    between atoms: _133  and  _134
REMARK   60  A    between atoms: _133  and  _136
REMARK   61  A    between atoms: _136  and  _137
REMARK   62  A    between atoms: _142  and  _144
REMARK   63  A    between atoms: _144  and  _145
REMARK   64  A    between atoms: _144  and  _147
REMARK   65  A    between atoms: _147  and  _148
REMARK   66  A    between atoms: _151  and  _153
REMARK   67  A    between atoms: _153  and  _154
REMARK   68  A    between atoms: _153  and  _156
REMARK   69  A    between atoms: _156  and  _157
REMARK   70  A    between atoms: _160  and  _162
REMARK   71  A    between atoms: _162  and  _163
REMARK   72  A    between atoms: _162  and  _165
REMARK   73  A    between atoms: _165  and  _166
REMARK   74  A    between atoms: _166  and  _167
REMARK   75  A    between atoms: _170  and  _172
REMARK   76  A    between atoms: _172  and  _173
REMARK   77  A    between atoms: _172  and  _175
REMARK   78  A    between atoms: _175  and  _176
REMARK   79  A    between atoms: _176  and  _177
REMARK   80  A    between atoms: _179  and  _181
REMARK   81  A    between atoms: _181  and  _182
REMARK   82  A    between atoms: _181  and  _184
REMARK   83  A    between atoms: _184  and  _185
REMARK   84  A    between atoms: _187  and  _189
REMARK   85  A    between atoms: _189  and  _190
REMARK   86  A    between atoms: _189  and  _192
REMARK   87  A    between atoms: _192  and  _193
REMARK   88  A    between atoms: _198  and  _200
REMARK   89  A    between atoms: _200  and  _201
REMARK   90  A    between atoms: _204  and  _206
REMARK   91  A    between atoms: _206  and  _207
REMARK   92  A    between atoms: _206  and  _209
REMARK   93  A    between atoms: _209  and  _210
REMARK   94  A    between atoms: _213  and  _215
REMARK   95  A    between atoms: _215  and  _216
REMARK   96  A    between atoms: _215  and  _218
REMARK   97  A    between atoms: _221  and  _223
REMARK   98  A    between atoms: _223  and  _224
REMARK   99  A    between atoms: _227  and  _228
REMARK  100  A    between atoms: _233  and  _235
REMARK  101  A    between atoms: _235  and  _236
REMARK  102  A    between atoms: _235  and  _238
REMARK  103  A    between atoms: _238  and  _239
REMARK  104  A    between atoms: _241  and  _243
REMARK  105  A    between atoms: _243  and  _244
REMARK  106  A    between atoms: _243  and  _246
REMARK  107  A    between atoms: _246  and  _247
REMARK  108  A    between atoms: _250  and  _252
REMARK  109  A    between atoms: _252  and  _253
REMARK  110  A    between atoms: _252  and  _255
REMARK  111  A    between atoms: _255  and  _256
REMARK  112  A    between atoms: _256  and  _257
REMARK  113  A    between atoms: _257  and  _258
REMARK  114  A    between atoms: _267  and  _269
REMARK  115  A    between atoms: _269  and  _270
REMARK  116  A    between atoms: _269  and  _272
REMARK  117  A    between atoms: _272  and  _273
REMARK  118  A    between atoms: _276  and  _278
REMARK  119  A    between atoms: _278  and  _279
REMARK  120  A    between atoms: _278  and  _281
REMARK  121  A    between atoms: _281  and  _282
REMARK  122  A    between atoms: _285  and  _286
REMARK  123  A    between atoms: _291  and  _293
REMARK  124  A    between atoms: _293  and  _294
REMARK  125  A    between atoms: _296  and  _298
REMARK  126  A    between atoms: _298  and  _299
REMARK  127  A    between atoms: _298  and  _301
REMARK  128  A    between atoms: _304  and  _306
REMARK  129  A    between atoms: _306  and  _307
REMARK  130  A    between atoms: _309  and  _311
REMARK  131  A    between atoms: _311  and  _312
REMARK  132  A    between atoms: _315  and  _317
REMARK  133  A    between atoms: _317  and  _318
REMARK  134  A    between atoms: _317  and  _320
REMARK  135  A    between atoms: _320  and  _321
REMARK  136  A    between atoms: _321  and  _322
REMARK  137  A    between atoms: _327  and  _329
REMARK  138  A    between atoms: _329  and  _330
REMARK  139  A    between atoms: _332  and  _334
REMARK  140  A    between atoms: _334  and  _335
REMARK  141  A    between atoms: _337  and  _339
REMARK  142  A    between atoms: _339  and  _340
REMARK  143  A    between atoms: _339  and  _342
REMARK  144  A    between atoms: _342  and  _343
REMARK  145  A    between atoms: _346  and  _348
REMARK  146  A    between atoms: _348  and  _349
REMARK  147  A    between atoms: _348  and  _351
REMARK  148  A    between atoms: _354  and  _356
REMARK  149  A    between atoms: _356  and  _357
REMARK  150  A    between atoms: _359  and  _361
REMARK  151  A    between atoms: _361  and  _362
REMARK  152  A    between atoms: _361  and  _364
REMARK  153  A    between atoms: _364  and  _365
REMARK  154  A    between atoms: _365  and  _366
REMARK  155  A    between atoms: _366  and  _367
REMARK  156  A    between atoms: _376  and  _378
REMARK  157  A    between atoms: _378  and  _379
REMARK  158  A    between atoms: _378  and  _381
REMARK  159  A    between atoms: _381  and  _382
REMARK  160  A    between atoms: _384  and  _386
REMARK  161  A    between atoms: _386  and  _387
REMARK  162  A    between atoms: _386  and  _389
REMARK  163  A    between atoms: _389  and  _390
REMARK  164  A    between atoms: _393  and  _395
REMARK  165  A    between atoms: _395  and  _396
REMARK  166  A    between atoms: _395  and  _398
REMARK  167  A    between atoms: _398  and  _399
REMARK  168  A    between atoms: _404  and  _405
REMARK  169  A    between atoms: _407  and  _409
REMARK  170  A    between atoms: _409  and  _410
REMARK  171  A    between atoms: _409  and  _412
REMARK  172  A    between atoms: _412  and  _413
REMARK  173  A    between atoms: _416  and  _418
REMARK  174  A    between atoms: _418  and  _419
REMARK  175  A    between atoms: _422  and  _424
REMARK  176  A    between atoms: _424  and  _425
REMARK  177  A    between atoms: _424  and  _427
REMARK  178  A    between atoms: _427  and  _428
REMARK  179  A    between atoms: _431  and  _433
REMARK  180  A    between atoms: _433  and  _434
REMARK  181  A    between atoms: _433  and  _436
REMARK  182  A    between atoms: _436  and  _437
REMARK  183  A    between atoms: _441  and  _442
REMARK  184  A    between atoms: _447  and  _449
REMARK  185  A    between atoms: _449  and  _450
REMARK  186  A    between atoms: _449  and  _452
REMARK  187  A    between atoms: _452  and  _453
REMARK  188  A    between atoms: _453  and  _454
REMARK  189  A    between atoms: _457  and  _459
REMARK  190  A    between atoms: _459  and  _460
REMARK  191  A    between atoms: _459  and  _462
REMARK  192  A    between atoms: _462  and  _463
REMARK  193  A    between atoms: _466  and  _468
REMARK  194  A    between atoms: _468  and  _469
REMARK  195  A    between atoms: _468  and  _471
REMARK  196  A    between atoms: _471  and  _472
REMARK  197  A    between atoms: _477  and  _479
REMARK  198  A    between atoms: _479  and  _480
REMARK  199  A    between atoms: _479  and  _482
REMARK  200  A    between atoms: _482  and  _483
REMARK  201  A    between atoms: _483  and  _484
REMARK  202  A    between atoms: _484  and  _485
REMARK  203  A    between atoms: _485  and  _486
REMARK  204  A    between atoms: _490  and  _492
REMARK  205  A    between atoms: _492  and  _493
REMARK  206  A    between atoms: _492  and  _495
REMARK  207  A    between atoms: _495  and  _496
REMARK                            x       y       z     vdW  Elec       q    Type
REMARK                         _______ _______ _______ _____ _____    ______ ____
ROOT
ATOM      1  O   HOH     1      28.135  -2.019   6.741  0.00  0.00    +0.000 OA
ENDROOT
TORSDOF 0
REMARK  Name = ../refined-set-2016/3g1d/3g1d_pocket.pdb
REMARK  207 active torsions:
REMARK  status: ('A' for Active; 'I' for Inactive)
REMARK    1  A    between atoms: _1  and  _3
REMARK    2  A    between atoms: _3  and  _4
REMARK    3  A    between atoms: _3  and  _6
REMARK    4  A    between atoms: _6  and  _7
REMARK    5  A    between atoms: _10  and  _12
REMARK    6  A    between atoms: _12  and  _13
REMARK    7  A    between atoms: _12  and  _15
REMARK    8  A    between atoms: _15  and  _16
REMARK    9  A    between atoms: _19  and  _21
REMARK   10  A    between atoms: _21  and  _22
REMARK   11  A    between atoms: _25  and  _27
REMARK   12  A    between atoms: _27  and  _28
REMARK   13  A    between atoms: _27  and  _30
REMARK   14  A    between atoms: _30  and  _31
REMARK   15  A    between atoms: _31  and  _32
REMARK   16  A    between atoms: _34  and  _36
REMARK   17  A    between atoms: _36  and  _37
REMARK   18  A    between atoms: _36  and  _39
REMARK   19  A    between atoms: _39  and  _40
REMARK   20  A    between atoms: _43  and  _45
REMARK   21  A    between atoms: _45  and  _46
REMARK   22  A    between atoms: _45  and  _48
REMARK   23  A    between atoms: _48  and  _49
REMARK   24  A    between atoms: _49  and  _50
REMARK   25  A    between atoms: _50  and  _51
REMARK   26  A    between atoms: _51  and  _52
REMARK   27  A    between atoms: _56  and  _58
REMARK   28  A    between atoms: _58  and  _59
REMARK   29  A    between atoms: _58  and  _61
REMARK   30  A    between atoms: _61  and  _62
REMARK   31  A    between atoms: _65  and  _67
REMARK   32  A    between atoms: _67  and  _68
REMARK   33  A    between atoms: _70  and  _72
REMARK   34  A    between atoms: _72  and  _73
REMARK   35  A    between atoms: _72  and  _75
REMARK   36  A    between atoms: _75  and  _76
REMARK   37  A    between atoms: _81  and  _82
REMARK   38  A    between atoms: _85  and  _86
REMARK   39  A    between atoms: _91  and  _93
REMARK   40  A    between atoms: _93  and  _94
REMARK   41  A    between atoms: _93  and  _96
REMARK   42  A    between atoms: _96  and  _97
REMARK   43  A    between atoms: _100  and  _102
REMARK   44  A    between atoms: _102  and  _103
REMARK   45  A    between atoms: _102  and  _105
REMARK   46  A    between atoms: _105  and  _106
REMARK   47  A    between atoms: _109  and  _111
REMARK   48  A    between atoms: _111  and  _112
REMARK   49  A    between atoms: _111  and  _114
REMARK   50  A    between atoms: _114  and  _115
REMARK   51  A    between atoms: _115  and  _116
REMARK   52  A    between atoms: _116  and  _117
REMARK   53  A    between atoms: _117  and  _118
REMARK   54  A    between atoms: _122  and  _124
REMARK   55  A    between atoms: _124  and  _125
REMARK   56  A    between atoms: _124  and  _127
REMARK   57  A    between atoms: _127  and  _128
REMARK   58  A    between atoms: _131  and  _133
REMARK   59  A    between atoms: _133  and  _134
REMARK   60  A    between atoms: _133  and  _136
REMARK   61  A    between atoms: _136  and  _137
REMARK   62  A    between atoms: _142  and  _144
REMARK   63  A    between atoms: _144  and  _145
REMARK   64  A    between atoms: _144  and  _147
REMARK   65  A    between atoms: _147  and  _148
REMARK   66  A    between atoms: _151  and  _153
REMARK   67  A    between atoms: _153  and  _154
REMARK   68  A    between atoms: _153  and  _156
REMARK   69  A    between atoms: _156  and  _157
REMARK   70  A    between atoms: _160  and  _162
REMARK   71  A    between atoms: _162  and  _163
REMARK   72  A    between atoms: _162  and  _165
REMARK   73  A    between atoms: _165  and  _166
REMARK   74  A    between atoms: _166  and  _167
REMARK   75  A    between atoms: _170  and  _172
REMARK   76  A    between atoms: _172  and  _173
REMARK   77  A    between atoms: _172  and  _175
REMARK   78  A    between atoms: _175  and  _176
REMARK   79  A    between atoms: _176  and  _177
REMARK   80  A    between atoms: _179  and  _181
REMARK   81  A    between atoms: _181  and  _182
REMARK   82  A    between atoms: _181  and  _184
REMARK   83  A    between atoms: _184  and  _185
REMARK   84  A    between atoms: _187  and  _189
REMARK   85  A    between atoms: _189  and  _190
REMARK   86  A    between atoms: _189  and  _192
REMARK   87  A    between atoms: _192  and  _193
REMARK   88  A    between atoms: _198  and  _200
REMARK   89  A    between atoms: _200  and  _201
REMARK   90  A    between atoms: _204  and  _206
REMARK   91  A    between atoms: _206  and  _207
REMARK   92  A    between atoms: _206  and  _209
REMARK   93  A    between atoms: _209  and  _210
REMARK   94  A    between atoms: _213  and  _215
REMARK   95  A    between atoms: _215  and  _216
REMARK   96  A    between atoms: _215  and  _218
REMARK   97  A    between atoms: _221  and  _223
REMARK   98  A    between atoms: _223  and  _224
REMARK   99  A    between atoms: _227  and  _228
REMARK  100  A    between atoms: _233  and  _235
REMARK  101  A    between atoms: _235  and  _236
REMARK  102  A    between atoms: _235  and  _238
REMARK  103  A    between atoms: _238  and  _239
REMARK  104  A    between atoms: _241  and  _243
REMARK  105  A    between atoms: _243  and  _244
REMARK  106  A    between atoms: _243  and  _246
REMARK  107  A    between atoms: _246  and  _247
REMARK  108  A    between atoms: _250  and  _252
REMARK  109  A    between atoms: _252  and  _253
REMARK  110  A    between atoms: _252  and  _255
REMARK  111  A    between atoms: _255  and  _256
REMARK  112  A    between atoms: _256  and  _257
REMARK  113  A    between atoms: _257  and  _258
REMARK  114  A    between atoms: _267  and  _269
REMARK  115  A    between atoms: _269  and  _270
REMARK  116  A    between atoms: _269  and  _272
REMARK  117  A    between atoms: _272  and  _273
REMARK  118  A    between atoms: _276  and  _278
REMARK  119  A    between atoms: _278  and  _279
REMARK  120  A    between atoms: _278  and  _281
REMARK  121  A    between atoms: _281  and  _282
REMARK  122  A    between atoms: _285  and  _286
REMARK  123  A    between atoms: _291  and  _293
REMARK  124  A    between atoms: _293  and  _294
REMARK  125  A    between atoms: _296  and  _298
REMARK  126  A    between atoms: _298  and  _299
REMARK  127  A    between atoms: _298  and  _301
REMARK  128  A    between atoms: _304  and  _306
REMARK  129  A    between atoms: _306  and  _307
REMARK  130  A    between atoms: _309  and  _311
REMARK  131  A    between atoms: _311  and  _312
REMARK  132  A    between atoms: _315  and  _317
REMARK  133  A    between atoms: _317  and  _318
REMARK  134  A    between atoms: _317  and  _320
REMARK  135  A    between atoms: _320  and  _321
REMARK  136  A    between atoms: _321  and  _322
REMARK  137  A    between atoms: _327  and  _329
REMARK  138  A    between atoms: _329  and  _330
REMARK  139  A    between atoms: _332  and  _334
REMARK  140  A    between atoms: _334  and  _335
REMARK  141  A    between atoms: _337  and  _339
REMARK  142  A    between atoms: _339  and  _340
REMARK  143  A    between atoms: _339  and  _342
REMARK  144  A    between atoms: _342  and  _343
REMARK  145  A    between atoms: _346  and  _348
REMARK  146  A    between atoms: _348  and  _349
REMARK  147  A    between atoms: _348  and  _351
REMARK  148  A    between atoms: _354  and  _356
REMARK  149  A    between atoms: _356  and  _357
REMARK  150  A    between atoms: _359  and  _361
REMARK  151  A    between atoms: _361  and  _362
REMARK  152  A    between atoms: _361  and  _364
REMARK  153  A    between atoms: _364  and  _365
REMARK  154  A    between atoms: _365  and  _366
REMARK  155  A    between atoms: _366  and  _367
REMARK  156  A    between atoms: _376  and  _378
REMARK  157  A    between atoms: _378  and  _379
REMARK  158  A    between atoms: _378  and  _381
REMARK  159  A    between atoms: _381  and  _382
REMARK  160  A    between atoms: _384  and  _386
REMARK  161  A    between atoms: _386  and  _387
REMARK  162  A    between atoms: _386  and  _389
REMARK  163  A    between atoms: _389  and  _390
REMARK  164  A    between atoms: _393  and  _395
REMARK  165  A    between atoms: _395  and  _396
REMARK  166  A    between atoms: _395  and  _398
REMARK  167  A    between atoms: _398  and  _399
REMARK  168  A    between atoms: _404  and  _405
REMARK  169  A    between atoms: _407  and  _409
REMARK  170  A    between atoms: _409  and  _410
REMARK  171  A    between atoms: _409  and  _412
REMARK  172  A    between atoms: _412  and  _413
REMARK  173  A    between atoms: _416  and  _418
REMARK  174  A    between atoms: _418  and  _419
REMARK  175  A    between atoms: _422  and  _424
REMARK  176  A    between atoms: _424  and  _425
REMARK  177  A    between atoms: _424  and  _427
REMARK  178  A    between atoms: _427  and  _428
REMARK  179  A    between atoms: _431  and  _433
REMARK  180  A    between atoms: _433  and  _434
REMARK  181  A    between atoms: _433  and  _436
REMARK  182  A    between atoms: _436  and  _437
REMARK  183  A    between atoms: _441  and  _442
REMARK  184  A    between atoms: _447  and  _449
REMARK  185  A    between atoms: _449  and  _450
REMARK  186  A    between atoms: _449  and  _452
REMARK  187  A    between atoms: _452  and  _453
REMARK  188  A    between atoms: _453  and  _454
REMARK  189  A    between atoms: _457  and  _459
REMARK  190  A    between atoms: _459  and  _460
REMARK  191  A    between atoms: _459  and  _462
REMARK  192  A    between atoms: _462  and  _463
REMARK  193  A    between atoms: _466  and  _468
REMARK  194  A    between atoms: _468  and  _469
REMARK  195  A    between atoms: _468  and  _471
REMARK  196  A    between atoms: _471  and  _472
REMARK  197  A    between atoms: _477  and  _479
REMARK  198  A    between atoms: _479  and  _480
REMARK  199  A    between atoms: _479  and  _482
REMARK  200  A    between atoms: _482  and  _483
REMARK  201  A    between atoms: _483  and  _484
REMARK  202  A    between atoms: _484  and  _485
REMARK  203  A    between atoms: _485  and  _486
REMARK  204  A    between atoms: _490  and  _492
REMARK  205  A    between atoms: _492  and  _493
REMARK  206  A    between atoms: _492  and  _495
REMARK  207  A    between atoms: _495  and  _496
REMARK                            x       y       z     vdW  Elec       q    Type
REMARK                         _______ _______ _______ _____ _____    ______ ____
ROOT
ATOM      1  O   HOH     1      16.514   2.780   4.026  0.00  0.00    +0.000 OA
ENDROOT
TORSDOF 0
REMARK  Name = ../refined-set-2016/3g1d/3g1d_pocket.pdb
REMARK  207 active torsions:
REMARK  status: ('A' for Active; 'I' for Inactive)
REMARK    1  A    between atoms: _1  and  _3
REMARK    2  A    between atoms: _3  and  _4
REMARK    3  A    between atoms: _3  and  _6
REMARK    4  A    between atoms: _6  and  _7
REMARK    5  A    between atoms: _10  and  _12
REMARK    6  A    between atoms: _12  and  _13
REMARK    7  A    between atoms: _12  and  _15
REMARK    8  A    between atoms: _15  and  _16
REMARK    9  A    between atoms: _19  and  _21
REMARK   10  A    between atoms: _21  and  _22
REMARK   11  A    between atoms: _25  and  _27
REMARK   12  A    between atoms: _27  and  _28
REMARK   13  A    between atoms: _27  and  _30
REMARK   14  A    between atoms: _30  and  _31
REMARK   15  A    between atoms: _31  and  _32
REMARK   16  A    between atoms: _34  and  _36
REMARK   17  A    between atoms: _36  and  _37
REMARK   18  A    between atoms: _36  and  _39
REMARK   19  A    between atoms: _39  and  _40
REMARK   20  A    between atoms: _43  and  _45
REMARK   21  A    between atoms: _45  and  _46
REMARK   22  A    between atoms: _45  and  _48
REMARK   23  A    between atoms: _48  and  _49
REMARK   24  A    between atoms: _49  and  _50
REMARK   25  A    between atoms: _50  and  _51
REMARK   26  A    between atoms: _51  and  _52
REMARK   27  A    between atoms: _56  and  _58
REMARK   28  A    between atoms: _58  and  _59
REMARK   29  A    between atoms: _58  and  _61
REMARK   30  A    between atoms: _61  and  _62
REMARK   31  A    between atoms: _65  and  _67
REMARK   32  A    between atoms: _67  and  _68
REMARK   33  A    between atoms: _70  and  _72
REMARK   34  A    between atoms: _72  and  _73
REMARK   35  A    between atoms: _72  and  _75
REMARK   36  A    between atoms: _75  and  _76
REMARK   37  A    between atoms: _81  and  _82
REMARK   38  A    between atoms: _85  and  _86
REMARK   39  A    between atoms: _91  and  _93
REMARK   40  A    between atoms: _93  and  _94
REMARK   41  A    between atoms: _93  and  _96
REMARK   42  A    between atoms: _96  and  _97
REMARK   43  A    between atoms: _100  and  _102
REMARK   44  A    between atoms: _102  and  _103
REMARK   45  A    between atoms: _102  and  _105
REMARK   46  A    between atoms: _105  and  _106
REMARK   47  A    between atoms: _109  and  _111
REMARK   48  A    between atoms: _111  and  _112
REMARK   49  A    between atoms: _111  and  _114
REMARK   50  A    between atoms: _114  and  _115
REMARK   51  A    between atoms: _115  and  _116
REMARK   52  A    between atoms: _116  and  _117
REMARK   53  A    between atoms: _117  and  _118
REMARK   54  A    between atoms: _122  and  _124
REMARK   55  A    between atoms: _124  and  _125
REMARK   56  A    between atoms: _124  and  _127
REMARK   57  A    between atoms: _127  and  _128
REMARK   58  A    between atoms: _131  and  _133
REMARK   59  A    between atoms: _133  and  _134
REMARK   60  A    between atoms: _133  and  _136
REMARK   61  A    between atoms: _136  and  _137
REMARK   62  A    between atoms: _142  and  _144
REMARK   63  A    between atoms: _144  and  _145
REMARK   64  A    between atoms: _144  and  _147
REMARK   65  A    between atoms: _147  and  _148
REMARK   66  A    between atoms: _151  and  _153
REMARK   67  A    between atoms: _153  and  _154
REMARK   68  A    between atoms: _153  and  _156
REMARK   69  A    between atoms: _156  and  _157
REMARK   70  A    between atoms: _160  and  _162
REMARK   71  A    between atoms: _162  and  _163
REMARK   72  A    between atoms: _162  and  _165
REMARK   73  A    between atoms: _165  and  _166
REMARK   74  A    between atoms: _166  and  _167
REMARK   75  A    between atoms: _170  and  _172
REMARK   76  A    between atoms: _172  and  _173
REMARK   77  A    between atoms: _172  and  _175
REMARK   78  A    between atoms: _175  and  _176
REMARK   79  A    between atoms: _176  and  _177
REMARK   80  A    between atoms: _179  and  _181
REMARK   81  A    between atoms: _181  and  _182
REMARK   82  A    between atoms: _181  and  _184
REMARK   83  A    between atoms: _184  and  _185
REMARK   84  A    between atoms: _187  and  _189
REMARK   85  A    between atoms: _189  and  _190
REMARK   86  A    between atoms: _189  and  _192
REMARK   87  A    between atoms: _192  and  _193
REMARK   88  A    between atoms: _198  and  _200
REMARK   89  A    between atoms: _200  and  _201
REMARK   90  A    between atoms: _204  and  _206
REMARK   91  A    between atoms: _206  and  _207
REMARK   92  A    between atoms: _206  and  _209
REMARK   93  A    between atoms: _209  and  _210
REMARK   94  A    between atoms: _213  and  _215
REMARK   95  A    between atoms: _215  and  _216
REMARK   96  A    between atoms: _215  and  _218
REMARK   97  A    between atoms: _221  and  _223
REMARK   98  A    between atoms: _223  and  _224
REMARK   99  A    between atoms: _227  and  _228
REMARK  100  A    between atoms: _233  and  _235
REMARK  101  A    between atoms: _235  and  _236
REMARK  102  A    between atoms: _235  and  _238
REMARK  103  A    between atoms: _238  and  _239
REMARK  104  A    between atoms: _241  and  _243
REMARK  105  A    between atoms: _243  and  _244
REMARK  106  A    between atoms: _243  and  _246
REMARK  107  A    between atoms: _246  and  _247
REMARK  108  A    between atoms: _250  and  _252
REMARK  109  A    between atoms: _252  and  _253
REMARK  110  A    between atoms: _252  and  _255
REMARK  111  A    between atoms: _255  and  _256
REMARK  112  A    between atoms: _256  and  _257
REMARK  113  A    between atoms: _257  and  _258
REMARK  114  A    between atoms: _267  and  _269
REMARK  115  A    between atoms: _269  and  _270
REMARK  116  A    between atoms: _269  and  _272
REMARK  117  A    between atoms: _272  and  _273
REMARK  118  A    between atoms: _276  and  _278
REMARK  119  A    between atoms: _278  and  _279
REMARK  120  A    between atoms: _278  and  _281
REMARK  121  A    between atoms: _281  and  _282
REMARK  122  A    between atoms: _285  and  _286
REMARK  123  A    between atoms: _291  and  _293
REMARK  124  A    between atoms: _293  and  _294
REMARK  125  A    between atoms: _296  and  _298
REMARK  126  A    between atoms: _298  and  _299
REMARK  127  A    between atoms: _298  and  _301
REMARK  128  A    between atoms: _304  and  _306
REMARK  129  A    between atoms: _306  and  _307
REMARK  130  A    between atoms: _309  and  _311
REMARK  131  A    between atoms: _311  and  _312
REMARK  132  A    between atoms: _315  and  _317
REMARK  133  A    between atoms: _317  and  _318
REMARK  134  A    between atoms: _317  and  _320
REMARK  135  A    between atoms: _320  and  _321
REMARK  136  A    between atoms: _321  and  _322
REMARK  137  A    between atoms: _327  and  _329
REMARK  138  A    between atoms: _329  and  _330
REMARK  139  A    between atoms: _332  and  _334
REMARK  140  A    between atoms: _334  and  _335
REMARK  141  A    between atoms: _337  and  _339
REMARK  142  A    between atoms: _339  and  _340
REMARK  143  A    between atoms: _339  and  _342
REMARK  144  A    between atoms: _342  and  _343
REMARK  145  A    between atoms: _346  and  _348
REMARK  146  A    between atoms: _348  and  _349
REMARK  147  A    between atoms: _348  and  _351
REMARK  148  A    between atoms: _354  and  _356
REMARK  149  A    between atoms: _356  and  _357
REMARK  150  A    between atoms: _359  and  _361
REMARK  151  A    between atoms: _361  and  _362
REMARK  152  A    between atoms: _361  and  _364
REMARK  153  A    between atoms: _364  and  _365
REMARK  154  A    between atoms: _365  and  _366
REMARK  155  A    between atoms: _366  and  _367
REMARK  156  A    between atoms: _376  and  _378
REMARK  157  A    between atoms: _378  and  _379
REMARK  158  A    between atoms: _378  and  _381
REMARK  159  A    between atoms: _381  and  _382
REMARK  160  A    between atoms: _384  and  _386
REMARK  161  A    between atoms: _386  and  _387
REMARK  162  A    between atoms: _386  and  _389
REMARK  163  A    between atoms: _389  and  _390
REMARK  164  A    between atoms: _393  and  _395
REMARK  165  A    between atoms: _395  and  _396
REMARK  166  A    between atoms: _395  and  _398
REMARK  167  A    between atoms: _398  and  _399
REMARK  168  A    between atoms: _404  and  _405
REMARK  169  A    between atoms: _407  and  _409
REMARK  170  A    between atoms: _409  and  _410
REMARK  171  A    between atoms: _409  and  _412
REMARK  172  A    between atoms: _412  and  _413
REMARK  173  A    between atoms: _416  and  _418
REMARK  174  A    between atoms: _418  and  _419
REMARK  175  A    between atoms: _422  and  _424
REMARK  176  A    between atoms: _424  and  _425
REMARK  177  A    between atoms: _424  and  _427
REMARK  178  A    between atoms: _427  and  _428
REMARK  179  A    between atoms: _431  and  _433
REMARK  180  A    between atoms: _433  and  _434
REMARK  181  A    between atoms: _433  and  _436
REMARK  182  A    between atoms: _436  and  _437
REMARK  183  A    between atoms: _441  and  _442
REMARK  184  A    between atoms: _447  and  _449
REMARK  185  A    between atoms: _449  and  _450
REMARK  186  A    between atoms: _449  and  _452
REMARK  187  A    between atoms: _452  and  _453
REMARK  188  A    between atoms: _453  and  _454
REMARK  189  A    between atoms: _457  and  _459
REMARK  190  A    between atoms: _459  and  _460
REMARK  191  A    between atoms: _459  and  _462
REMARK  192  A    between atoms: _462  and  _463
REMARK  193  A    between atoms: _466  and  _468
REMARK  194  A    between atoms: _468  and  _469
REMARK  195  A    between atoms: _468  and  _471
REMARK  196  A    between atoms: _471  and  _472
REMARK  197  A    between atoms: _477  and  _479
REMARK  198  A    between atoms: _479  and  _480
REMARK  199  A    between atoms: _479  and  _482
REMARK  200  A    between atoms: _482  and  _483
REMARK  201  A    between atoms: _483  and  _484
REMARK  202  A    between atoms: _484  and  _485
REMARK  203  A    between atoms: _485  and  _486
REMARK  204  A    between atoms: _490  and  _492
REMARK  205  A    between atoms: _492  and  _493
REMARK  206  A    between atoms: _492  and  _495
REMARK  207  A    between atoms: _495  and  _496
REMARK                            x       y       z     vdW  Elec       q    Type
REMARK                         _______ _______ _______ _____ _____    ______ ____
ROOT
ATOM      1  O   HOH     1      19.638  -5.814   3.284  0.00  0.00    +0.000 OA
ENDROOT
TORSDOF 0
REMARK  Name = ../refined-set-2016/3g1d/3g1d_pocket.pdb
REMARK  207 active torsions:
REMARK  status: ('A' for Active; 'I' for Inactive)
REMARK    1  A    between atoms: _1  and  _3
REMARK    2  A    between atoms: _3  and  _4
REMARK    3  A    between atoms: _3  and  _6
REMARK    4  A    between atoms: _6  and  _7
REMARK    5  A    between atoms: _10  and  _12
REMARK    6  A    between atoms: _12  and  _13
REMARK    7  A    between atoms: _12  and  _15
REMARK    8  A    between atoms: _15  and  _16
REMARK    9  A    between atoms: _19  and  _21
REMARK   10  A    between atoms: _21  and  _22
REMARK   11  A    between atoms: _25  and  _27
REMARK   12  A    between atoms: _27  and  _28
REMARK   13  A    between atoms: _27  and  _30
REMARK   14  A    between atoms: _30  and  _31
REMARK   15  A    between atoms: _31  and  _32
REMARK   16  A    between atoms: _34  and  _36
REMARK   17  A    between atoms: _36  and  _37
REMARK   18  A    between atoms: _36  and  _39
REMARK   19  A    between atoms: _39  and  _40
REMARK   20  A    between atoms: _43  and  _45
REMARK   21  A    between atoms: _45  and  _46
REMARK   22  A    between atoms: _45  and  _48
REMARK   23  A    between atoms: _48  and  _49
REMARK   24  A    between atoms: _49  and  _50
REMARK   25  A    between atoms: _50  and  _51
REMARK   26  A    between atoms: _51  and  _52
REMARK   27  A    between atoms: _56  and  _58
REMARK   28  A    between atoms: _58  and  _59
REMARK   29  A    between atoms: _58  and  _61
REMARK   30  A    between atoms: _61  and  _62
REMARK   31  A    between atoms: _65  and  _67
REMARK   32  A    between atoms: _67  and  _68
REMARK   33  A    between atoms: _70  and  _72
REMARK   34  A    between atoms: _72  and  _73
REMARK   35  A    between atoms: _72  and  _75
REMARK   36  A    between atoms: _75  and  _76
REMARK   37  A    between atoms: _81  and  _82
REMARK   38  A    between atoms: _85  and  _86
REMARK   39  A    between atoms: _91  and  _93
REMARK   40  A    between atoms: _93  and  _94
REMARK   41  A    between atoms: _93  and  _96
REMARK   42  A    between atoms: _96  and  _97
REMARK   43  A    between atoms: _100  and  _102
REMARK   44  A    between atoms: _102  and  _103
REMARK   45  A    between atoms: _102  and  _105
REMARK   46  A    between atoms: _105  and  _106
REMARK   47  A    between atoms: _109  and  _111
REMARK   48  A    between atoms: _111  and  _112
REMARK   49  A    between atoms: _111  and  _114
REMARK   50  A    between atoms: _114  and  _115
REMARK   51  A    between atoms: _115  and  _116
REMARK   52  A    between atoms: _116  and  _117
REMARK   53  A    between atoms: _117  and  _118
REMARK   54  A    between atoms: _122  and  _124
REMARK   55  A    between atoms: _124  and  _125
REMARK   56  A    between atoms: _124  and  _127
REMARK   57  A    between atoms: _127  and  _128
REMARK   58  A    between atoms: _131  and  _133
REMARK   59  A    between atoms: _133  and  _134
REMARK   60  A    between atoms: _133  and  _136
REMARK   61  A    between atoms: _136  and  _137
REMARK   62  A    between atoms: _142  and  _144
REMARK   63  A    between atoms: _144  and  _145
REMARK   64  A    between atoms: _144  and  _147
REMARK   65  A    between atoms: _147  and  _148
REMARK   66  A    between atoms: _151  and  _153
REMARK   67  A    between atoms: _153  and  _154
REMARK   68  A    between atoms: _153  and  _156
REMARK   69  A    between atoms: _156  and  _157
REMARK   70  A    between atoms: _160  and  _162
REMARK   71  A    between atoms: _162  and  _163
REMARK   72  A    between atoms: _162  and  _165
REMARK   73  A    between atoms: _165  and  _166
REMARK   74  A    between atoms: _166  and  _167
REMARK   75  A    between atoms: _170  and  _172
REMARK   76  A    between atoms: _172  and  _173
REMARK   77  A    between atoms: _172  and  _175
REMARK   78  A    between atoms: _175  and  _176
REMARK   79  A    between atoms: _176  and  _177
REMARK   80  A    between atoms: _179  and  _181
REMARK   81  A    between atoms: _181  and  _182
REMARK   82  A    between atoms: _181  and  _184
REMARK   83  A    between atoms: _184  and  _185
REMARK   84  A    between atoms: _187  and  _189
REMARK   85  A    between atoms: _189  and  _190
REMARK   86  A    between atoms: _189  and  _192
REMARK   87  A    between atoms: _192  and  _193
REMARK   88  A    between atoms: _198  and  _200
REMARK   89  A    between atoms: _200  and  _201
REMARK   90  A    between atoms: _204  and  _206
REMARK   91  A    between atoms: _206  and  _207
REMARK   92  A    between atoms: _206  and  _209
REMARK   93  A    between atoms: _209  and  _210
REMARK   94  A    between atoms: _213  and  _215
REMARK   95  A    between atoms: _215  and  _216
REMARK   96  A    between atoms: _215  and  _218
REMARK   97  A    between atoms: _221  and  _223
REMARK   98  A    between atoms: _223  and  _224
REMARK   99  A    between atoms: _227  and  _228
REMARK  100  A    between atoms: _233  and  _235
REMARK  101  A    between atoms: _235  and  _236
REMARK  102  A    between atoms: _235  and  _238
REMARK  103  A    between atoms: _238  and  _239
REMARK  104  A    between atoms: _241  and  _243
REMARK  105  A    between atoms: _243  and  _244
REMARK  106  A    between atoms: _243  and  _246
REMARK  107  A    between atoms: _246  and  _247
REMARK  108  A    between atoms: _250  and  _252
REMARK  109  A    between atoms: _252  and  _253
REMARK  110  A    between atoms: _252  and  _255
REMARK  111  A    between atoms: _255  and  _256
REMARK  112  A    between atoms: _256  and  _257
REMARK  113  A    between atoms: _257  and  _258
REMARK  114  A    between atoms: _267  and  _269
REMARK  115  A    between atoms: _269  and  _270
REMARK  116  A    between atoms: _269  and  _272
REMARK  117  A    between atoms: _272  and  _273
REMARK  118  A    between atoms: _276  and  _278
REMARK  119  A    between atoms: _278  and  _279
REMARK  120  A    between atoms: _278  and  _281
REMARK  121  A    between atoms: _281  and  _282
REMARK  122  A    between atoms: _285  and  _286
REMARK  123  A    between atoms: _291  and  _293
REMARK  124  A    between atoms: _293  and  _294
REMARK  125  A    between atoms: _296  and  _298
REMARK  126  A    between atoms: _298  and  _299
REMARK  127  A    between atoms: _298  and  _301
REMARK  128  A    between atoms: _304  and  _306
REMARK  129  A    between atoms: _306  and  _307
REMARK  130  A    between atoms: _309  and  _311
REMARK  131  A    between atoms: _311  and  _312
REMARK  132  A    between atoms: _315  and  _317
REMARK  133  A    between atoms: _317  and  _318
REMARK  134  A    between atoms: _317  and  _320
REMARK  135  A    between atoms: _320  and  _321
REMARK  136  A    between atoms: _321  and  _322
REMARK  137  A    between atoms: _327  and  _329
REMARK  138  A    between atoms: _329  and  _330
REMARK  139  A    between atoms: _332  and  _334
REMARK  140  A    between atoms: _334  and  _335
REMARK  141  A    between atoms: _337  and  _339
REMARK  142  A    between atoms: _339  and  _340
REMARK  143  A    between atoms: _339  and  _342
REMARK  144  A    between atoms: _342  and  _343
REMARK  145  A    between atoms: _346  and  _348
REMARK  146  A    between atoms: _348  and  _349
REMARK  147  A    between atoms: _348  and  _351
REMARK  148  A    between atoms: _354  and  _356
REMARK  149  A    between atoms: _356  and  _357
REMARK  150  A    between atoms: _359  and  _361
REMARK  151  A    between atoms: _361  and  _362
REMARK  152  A    between atoms: _361  and  _364
REMARK  153  A    between atoms: _364  and  _365
REMARK  154  A    between atoms: _365  and  _366
REMARK  155  A    between atoms: _366  and  _367
REMARK  156  A    between atoms: _376  and  _378
REMARK  157  A    between atoms: _378  and  _379
REMARK  158  A    between atoms: _378  and  _381
REMARK  159  A    between atoms: _381  and  _382
REMARK  160  A    between atoms: _384  and  _386
REMARK  161  A    between atoms: _386  and  _387
REMARK  162  A    between atoms: _386  and  _389
REMARK  163  A    between atoms: _389  and  _390
REMARK  164  A    between atoms: _393  and  _395
REMARK  165  A    between atoms: _395  and  _396
REMARK  166  A    between atoms: _395  and  _398
REMARK  167  A    between atoms: _398  and  _399
REMARK  168  A    between atoms: _404  and  _405
REMARK  169  A    between atoms: _407  and  _409
REMARK  170  A    between atoms: _409  and  _410
REMARK  171  A    between atoms: _409  and  _412
REMARK  172  A    between atoms: _412  and  _413
REMARK  173  A    between atoms: _416  and  _418
REMARK  174  A    between atoms: _418  and  _419
REMARK  175  A    between atoms: _422  and  _424
REMARK  176  A    between atoms: _424  and  _425
REMARK  177  A    between atoms: _424  and  _427
REMARK  178  A    between atoms: _427  and  _428
REMARK  179  A    between atoms: _431  and  _433
REMARK  180  A    between atoms: _433  and  _434
REMARK  181  A    between atoms: _433  and  _436
REMARK  182  A    between atoms: _436  and  _437
REMARK  183  A    between atoms: _441  and  _442
REMARK  184  A    between atoms: _447  and  _449
REMARK  185  A    between atoms: _449  and  _450
REMARK  186  A    between atoms: _449  and  _452
REMARK  187  A    between atoms: _452  and  _453
REMARK  188  A    between atoms: _453  and  _454
REMARK  189  A    between atoms: _457  and  _459
REMARK  190  A    between atoms: _459  and  _460
REMARK  191  A    between atoms: _459  and  _462
REMARK  192  A    between atoms: _462  and  _463
REMARK  193  A    between atoms: _466  and  _468
REMARK  194  A    between atoms: _468  and  _469
REMARK  195  A    between atoms: _468  and  _471
REMARK  196  A    between atoms: _471  and  _472
REMARK  197  A    between atoms: _477  and  _479
REMARK  198  A    between atoms: _479  and  _480
REMARK  199  A    between atoms: _479  and  _482
REMARK  200  A    between atoms: _482  and  _483
REMARK  201  A    between atoms: _483  and  _484
REMARK  202  A    between atoms: _484  and  _485
REMARK  203  A    between atoms: _485  and  _486
REMARK  204  A    between atoms: _490  and  _492
REMARK  205  A    between atoms: _492  and  _493
REMARK  206  A    between atoms: _492  and  _495
REMARK  207  A    between atoms: _495  and  _496
REMARK                            x       y       z     vdW  Elec       q    Type
REMARK                         _______ _______ _______ _____ _____    ______ ____
ROOT
ATOM      1  O   HOH     1      17.250  -0.192  16.183  0.00  0.00    +0.000 OA
ENDROOT
TORSDOF 0
REMARK  Name = ../refined-set-2016/3g1d/3g1d_pocket.pdb
REMARK  207 active torsions:
REMARK  status: ('A' for Active; 'I' for Inactive)
REMARK    1  A    between atoms: _1  and  _3
REMARK    2  A    between atoms: _3  and  _4
REMARK    3  A    between atoms: _3  and  _6
REMARK    4  A    between atoms: _6  and  _7
REMARK    5  A    between atoms: _10  and  _12
REMARK    6  A    between atoms: _12  and  _13
REMARK    7  A    between atoms: _12  and  _15
REMARK    8  A    between atoms: _15  and  _16
REMARK    9  A    between atoms: _19  and  _21
REMARK   10  A    between atoms: _21  and  _22
REMARK   11  A    between atoms: _25  and  _27
REMARK   12  A    between atoms: _27  and  _28
REMARK   13  A    between atoms: _27  and  _30
REMARK   14  A    between atoms: _30  and  _31
REMARK   15  A    between atoms: _31  and  _32
REMARK   16  A    between atoms: _34  and  _36
REMARK   17  A    between atoms: _36  and  _37
REMARK   18  A    between atoms: _36  and  _39
REMARK   19  A    between atoms: _39  and  _40
REMARK   20  A    between atoms: _43  and  _45
REMARK   21  A    between atoms: _45  and  _46
REMARK   22  A    between atoms: _45  and  _48
REMARK   23  A    between atoms: _48  and  _49
REMARK   24  A    between atoms: _49  and  _50
REMARK   25  A    between atoms: _50  and  _51
REMARK   26  A    between atoms: _51  and  _52
REMARK   27  A    between atoms: _56  and  _58
REMARK   28  A    between atoms: _58  and  _59
REMARK   29  A    between atoms: _58  and  _61
REMARK   30  A    between atoms: _61  and  _62
REMARK   31  A    between atoms: _65  and  _67
REMARK   32  A    between atoms: _67  and  _68
REMARK   33  A    between atoms: _70  and  _72
REMARK   34  A    between atoms: _72  and  _73
REMARK   35  A    between atoms: _72  and  _75
REMARK   36  A    between atoms: _75  and  _76
REMARK   37  A    between atoms: _81  and  _82
REMARK   38  A    between atoms: _85  and  _86
REMARK   39  A    between atoms: _91  and  _93
REMARK   40  A    between atoms: _93  and  _94
REMARK   41  A    between atoms: _93  and  _96
REMARK   42  A    between atoms: _96  and  _97
REMARK   43  A    between atoms: _100  and  _102
REMARK   44  A    between atoms: _102  and  _103
REMARK   45  A    between atoms: _102  and  _105
REMARK   46  A    between atoms: _105  and  _106
REMARK   47  A    between atoms: _109  and  _111
REMARK   48  A    between atoms: _111  and  _112
REMARK   49  A    between atoms: _111  and  _114
REMARK   50  A    between atoms: _114  and  _115
REMARK   51  A    between atoms: _115  and  _116
REMARK   52  A    between atoms: _116  and  _117
REMARK   53  A    between atoms: _117  and  _118
REMARK   54  A    between atoms: _122  and  _124
REMARK   55  A    between atoms: _124  and  _125
REMARK   56  A    between atoms: _124  and  _127
REMARK   57  A    between atoms: _127  and  _128
REMARK   58  A    between atoms: _131  and  _133
REMARK   59  A    between atoms: _133  and  _134
REMARK   60  A    between atoms: _133  and  _136
REMARK   61  A    between atoms: _136  and  _137
REMARK   62  A    between atoms: _142  and  _144
REMARK   63  A    between atoms: _144  and  _145
REMARK   64  A    between atoms: _144  and  _147
REMARK   65  A    between atoms: _147  and  _148
REMARK   66  A    between atoms: _151  and  _153
REMARK   67  A    between atoms: _153  and  _154
REMARK   68  A    between atoms: _153  and  _156
REMARK   69  A    between atoms: _156  and  _157
REMARK   70  A    between atoms: _160  and  _162
REMARK   71  A    between atoms: _162  and  _163
REMARK   72  A    between atoms: _162  and  _165
REMARK   73  A    between atoms: _165  and  _166
REMARK   74  A    between atoms: _166  and  _167
REMARK   75  A    between atoms: _170  and  _172
REMARK   76  A    between atoms: _172  and  _173
REMARK   77  A    between atoms: _172  and  _175
REMARK   78  A    between atoms: _175  and  _176
REMARK   79  A    between atoms: _176  and  _177
REMARK   80  A    between atoms: _179  and  _181
REMARK   81  A    between atoms: _181  and  _182
REMARK   82  A    between atoms: _181  and  _184
REMARK   83  A    between atoms: _184  and  _185
REMARK   84  A    between atoms: _187  and  _189
REMARK   85  A    between atoms: _189  and  _190
REMARK   86  A    between atoms: _189  and  _192
REMARK   87  A    between atoms: _192  and  _193
REMARK   88  A    between atoms: _198  and  _200
REMARK   89  A    between atoms: _200  and  _201
REMARK   90  A    between atoms: _204  and  _206
REMARK   91  A    between atoms: _206  and  _207
REMARK   92  A    between atoms: _206  and  _209
REMARK   93  A    between atoms: _209  and  _210
REMARK   94  A    between atoms: _213  and  _215
REMARK   95  A    between atoms: _215  and  _216
REMARK   96  A    between atoms: _215  and  _218
REMARK   97  A    between atoms: _221  and  _223
REMARK   98  A    between atoms: _223  and  _224
REMARK   99  A    between atoms: _227  and  _228
REMARK  100  A    between atoms: _233  and  _235
REMARK  101  A    between atoms: _235  and  _236
REMARK  102  A    between atoms: _235  and  _238
REMARK  103  A    between atoms: _238  and  _239
REMARK  104  A    between atoms: _241  and  _243
REMARK  105  A    between atoms: _243  and  _244
REMARK  106  A    between atoms: _243  and  _246
REMARK  107  A    between atoms: _246  and  _247
REMARK  108  A    between atoms: _250  and  _252
REMARK  109  A    between atoms: _252  and  _253
REMARK  110  A    between atoms: _252  and  _255
REMARK  111  A    between atoms: _255  and  _256
REMARK  112  A    between atoms: _256  and  _257
REMARK  113  A    between atoms: _257  and  _258
REMARK  114  A    between atoms: _267  and  _269
REMARK  115  A    between atoms: _269  and  _270
REMARK  116  A    between atoms: _269  and  _272
REMARK  117  A    between atoms: _272  and  _273
REMARK  118  A    between atoms: _276  and  _278
REMARK  119  A    between atoms: _278  and  _279
REMARK  120  A    between atoms: _278  and  _281
REMARK  121  A    between atoms: _281  and  _282
REMARK  122  A    between atoms: _285  and  _286
REMARK  123  A    between atoms: _291  and  _293
REMARK  124  A    between atoms: _293  and  _294
REMARK  125  A    between atoms: _296  and  _298
REMARK  126  A    between atoms: _298  and  _299
REMARK  127  A    between atoms: _298  and  _301
REMARK  128  A    between atoms: _304  and  _306
REMARK  129  A    between atoms: _306  and  _307
REMARK  130  A    between atoms: _309  and  _311
REMARK  131  A    between atoms: _311  and  _312
REMARK  132  A    between atoms: _315  and  _317
REMARK  133  A    between atoms: _317  and  _318
REMARK  134  A    between atoms: _317  and  _320
REMARK  135  A    between atoms: _320  and  _321
REMARK  136  A    between atoms: _321  and  _322
REMARK  137  A    between atoms: _327  and  _329
REMARK  138  A    between atoms: _329  and  _330
REMARK  139  A    between atoms: _332  and  _334
REMARK  140  A    between atoms: _334  and  _335
REMARK  141  A    between atoms: _337  and  _339
REMARK  142  A    between atoms: _339  and  _340
REMARK  143  A    between atoms: _339  and  _342
REMARK  144  A    between atoms: _342  and  _343
REMARK  145  A    between atoms: _346  and  _348
REMARK  146  A    between atoms: _348  and  _349
REMARK  147  A    between atoms: _348  and  _351
REMARK  148  A    between atoms: _354  and  _356
REMARK  149  A    between atoms: _356  and  _357
REMARK  150  A    between atoms: _359  and  _361
REMARK  151  A    between atoms: _361  and  _362
REMARK  152  A    between atoms: _361  and  _364
REMARK  153  A    between atoms: _364  and  _365
REMARK  154  A    between atoms: _365  and  _366
REMARK  155  A    between atoms: _366  and  _367
REMARK  156  A    between atoms: _376  and  _378
REMARK  157  A    between atoms: _378  and  _379
REMARK  158  A    between atoms: _378  and  _381
REMARK  159  A    between atoms: _381  and  _382
REMARK  160  A    between atoms: _384  and  _386
REMARK  161  A    between atoms: _386  and  _387
REMARK  162  A    between atoms: _386  and  _389
REMARK  163  A    between atoms: _389  and  _390
REMARK  164  A    between atoms: _393  and  _395
REMARK  165  A    between atoms: _395  and  _396
REMARK  166  A    between atoms: _395  and  _398
REMARK  167  A    between atoms: _398  and  _399
REMARK  168  A    between atoms: _404  and  _405
REMARK  169  A    between atoms: _407  and  _409
REMARK  170  A    between atoms: _409  and  _410
REMARK  171  A    between atoms: _409  and  _412
REMARK  172  A    between atoms: _412  and  _413
REMARK  173  A    between atoms: _416  and  _418
REMARK  174  A    between atoms: _418  and  _419
REMARK  175  A    between atoms: _422  and  _424
REMARK  176  A    between atoms: _424  and  _425
REMARK  177  A    between atoms: _424  and  _427
REMARK  178  A    between atoms: _427  and  _428
REMARK  179  A    between atoms: _431  and  _433
REMARK  180  A    between atoms: _433  and  _434
REMARK  181  A    between atoms: _433  and  _436
REMARK  182  A    between atoms: _436  and  _437
REMARK  183  A    between atoms: _441  and  _442
REMARK  184  A    between atoms: _447  and  _449
REMARK  185  A    between atoms: _449  and  _450
REMARK  186  A    between atoms: _449  and  _452
REMARK  187  A    between atoms: _452  and  _453
REMARK  188  A    between atoms: _453  and  _454
REMARK  189  A    between atoms: _457  and  _459
REMARK  190  A    between atoms: _459  and  _460
REMARK  191  A    between atoms: _459  and  _462
REMARK  192  A    between atoms: _462  and  _463
REMARK  193  A    between atoms: _466  and  _468
REMARK  194  A    between atoms: _468  and  _469
REMARK  195  A    between atoms: _468  and  _471
REMARK  196  A    between atoms: _471  and  _472
REMARK  197  A    between atoms: _477  and  _479
REMARK  198  A    between atoms: _479  and  _480
REMARK  199  A    between atoms: _479  and  _482
REMARK  200  A    between atoms: _482  and  _483
REMARK  201  A    between atoms: _483  and  _484
REMARK  202  A    between atoms: _484  and  _485
REMARK  203  A    between atoms: _485  and  _486
REMARK  204  A    between atoms: _490  and  _492
REMARK  205  A    between atoms: _492  and  _493
REMARK  206  A    between atoms: _492  and  _495
REMARK  207  A    between atoms: _495  and  _496
REMARK                            x       y       z     vdW  Elec       q    Type
REMARK                         _______ _______ _______ _____ _____    ______ ____
ROOT
ATOM      1  O   HOH     1      32.435  -6.502   8.189  0.00  0.00    +0.000 OA
ENDROOT
TORSDOF 0
REMARK  Name = ../refined-set-2016/3g1d/3g1d_pocket.pdb
REMARK  207 active torsions:
REMARK  status: ('A' for Active; 'I' for Inactive)
REMARK    1  A    between atoms: _1  and  _3
REMARK    2  A    between atoms: _3  and  _4
REMARK    3  A    between atoms: _3  and  _6
REMARK    4  A    between atoms: _6  and  _7
REMARK    5  A    between atoms: _10  and  _12
REMARK    6  A    between atoms: _12  and  _13
REMARK    7  A    between atoms: _12  and  _15
REMARK    8  A    between atoms: _15  and  _16
REMARK    9  A    between atoms: _19  and  _21
REMARK   10  A    between atoms: _21  and  _22
REMARK   11  A    between atoms: _25  and  _27
REMARK   12  A    between atoms: _27  and  _28
REMARK   13  A    between atoms: _27  and  _30
REMARK   14  A    between atoms: _30  and  _31
REMARK   15  A    between atoms: _31  and  _32
REMARK   16  A    between atoms: _34  and  _36
REMARK   17  A    between atoms: _36  and  _37
REMARK   18  A    between atoms: _36  and  _39
REMARK   19  A    between atoms: _39  and  _40
REMARK   20  A    between atoms: _43  and  _45
REMARK   21  A    between atoms: _45  and  _46
REMARK   22  A    between atoms: _45  and  _48
REMARK   23  A    between atoms: _48  and  _49
REMARK   24  A    between atoms: _49  and  _50
REMARK   25  A    between atoms: _50  and  _51
REMARK   26  A    between atoms: _51  and  _52
REMARK   27  A    between atoms: _56  and  _58
REMARK   28  A    between atoms: _58  and  _59
REMARK   29  A    between atoms: _58  and  _61
REMARK   30  A    between atoms: _61  and  _62
REMARK   31  A    between atoms: _65  and  _67
REMARK   32  A    between atoms: _67  and  _68
REMARK   33  A    between atoms: _70  and  _72
REMARK   34  A    between atoms: _72  and  _73
REMARK   35  A    between atoms: _72  and  _75
REMARK   36  A    between atoms: _75  and  _76
REMARK   37  A    between atoms: _81  and  _82
REMARK   38  A    between atoms: _85  and  _86
REMARK   39  A    between atoms: _91  and  _93
REMARK   40  A    between atoms: _93  and  _94
REMARK   41  A    between atoms: _93  and  _96
REMARK   42  A    between atoms: _96  and  _97
REMARK   43  A    between atoms: _100  and  _102
REMARK   44  A    between atoms: _102  and  _103
REMARK   45  A    between atoms: _102  and  _105
REMARK   46  A    between atoms: _105  and  _106
REMARK   47  A    between atoms: _109  and  _111
REMARK   48  A    between atoms: _111  and  _112
REMARK   49  A    between atoms: _111  and  _114
REMARK   50  A    between atoms: _114  and  _115
REMARK   51  A    between atoms: _115  and  _116
REMARK   52  A    between atoms: _116  and  _117
REMARK   53  A    between atoms: _117  and  _118
REMARK   54  A    between atoms: _122  and  _124
REMARK   55  A    between atoms: _124  and  _125
REMARK   56  A    between atoms: _124  and  _127
REMARK   57  A    between atoms: _127  and  _128
REMARK   58  A    between atoms: _131  and  _133
REMARK   59  A    between atoms: _133  and  _134
REMARK   60  A    between atoms: _133  and  _136
REMARK   61  A    between atoms: _136  and  _137
REMARK   62  A    between atoms: _142  and  _144
REMARK   63  A    between atoms: _144  and  _145
REMARK   64  A    between atoms: _144  and  _147
REMARK   65  A    between atoms: _147  and  _148
REMARK   66  A    between atoms: _151  and  _153
REMARK   67  A    between atoms: _153  and  _154
REMARK   68  A    between atoms: _153  and  _156
REMARK   69  A    between atoms: _156  and  _157
REMARK   70  A    between atoms: _160  and  _162
REMARK   71  A    between atoms: _162  and  _163
REMARK   72  A    between atoms: _162  and  _165
REMARK   73  A    between atoms: _165  and  _166
REMARK   74  A    between atoms: _166  and  _167
REMARK   75  A    between atoms: _170  and  _172
REMARK   76  A    between atoms: _172  and  _173
REMARK   77  A    between atoms: _172  and  _175
REMARK   78  A    between atoms: _175  and  _176
REMARK   79  A    between atoms: _176  and  _177
REMARK   80  A    between atoms: _179  and  _181
REMARK   81  A    between atoms: _181  and  _182
REMARK   82  A    between atoms: _181  and  _184
REMARK   83  A    between atoms: _184  and  _185
REMARK   84  A    between atoms: _187  and  _189
REMARK   85  A    between atoms: _189  and  _190
REMARK   86  A    between atoms: _189  and  _192
REMARK   87  A    between atoms: _192  and  _193
REMARK   88  A    between atoms: _198  and  _200
REMARK   89  A    between atoms: _200  and  _201
REMARK   90  A    between atoms: _204  and  _206
REMARK   91  A    between atoms: _206  and  _207
REMARK   92  A    between atoms: _206  and  _209
REMARK   93  A    between atoms: _209  and  _210
REMARK   94  A    between atoms: _213  and  _215
REMARK   95  A    between atoms: _215  and  _216
REMARK   96  A    between atoms: _215  and  _218
REMARK   97  A    between atoms: _221  and  _223
REMARK   98  A    between atoms: _223  and  _224
REMARK   99  A    between atoms: _227  and  _228
REMARK  100  A    between atoms: _233  and  _235
REMARK  101  A    between atoms: _235  and  _236
REMARK  102  A    between atoms: _235  and  _238
REMARK  103  A    between atoms: _238  and  _239
REMARK  104  A    between atoms: _241  and  _243
REMARK  105  A    between atoms: _243  and  _244
REMARK  106  A    between atoms: _243  and  _246
REMARK  107  A    between atoms: _246  and  _247
REMARK  108  A    between atoms: _250  and  _252
REMARK  109  A    between atoms: _252  and  _253
REMARK  110  A    between atoms: _252  and  _255
REMARK  111  A    between atoms: _255  and  _256
REMARK  112  A    between atoms: _256  and  _257
REMARK  113  A    between atoms: _257  and  _258
REMARK  114  A    between atoms: _267  and  _269
REMARK  115  A    between atoms: _269  and  _270
REMARK  116  A    between atoms: _269  and  _272
REMARK  117  A    between atoms: _272  and  _273
REMARK  118  A    between atoms: _276  and  _278
REMARK  119  A    between atoms: _278  and  _279
REMARK  120  A    between atoms: _278  and  _281
REMARK  121  A    between atoms: _281  and  _282
REMARK  122  A    between atoms: _285  and  _286
REMARK  123  A    between atoms: _291  and  _293
REMARK  124  A    between atoms: _293  and  _294
REMARK  125  A    between atoms: _296  and  _298
REMARK  126  A    between atoms: _298  and  _299
REMARK  127  A    between atoms: _298  and  _301
REMARK  128  A    between atoms: _304  and  _306
REMARK  129  A    between atoms: _306  and  _307
REMARK  130  A    between atoms: _309  and  _311
REMARK  131  A    between atoms: _311  and  _312
REMARK  132  A    between atoms: _315  and  _317
REMARK  133  A    between atoms: _317  and  _318
REMARK  134  A    between atoms: _317  and  _320
REMARK  135  A    between atoms: _320  and  _321
REMARK  136  A    between atoms: _321  and  _322
REMARK  137  A    between atoms: _327  and  _329
REMARK  138  A    between atoms: _329  and  _330
REMARK  139  A    between atoms: _332  and  _334
REMARK  140  A    between atoms: _334  and  _335
REMARK  141  A    between atoms: _337  and  _339
REMARK  142  A    between atoms: _339  and  _340
REMARK  143  A    between atoms: _339  and  _342
REMARK  144  A    between atoms: _342  and  _343
REMARK  145  A    between atoms: _346  and  _348
REMARK  146  A    between atoms: _348  and  _349
REMARK  147  A    between atoms: _348  and  _351
REMARK  148  A    between atoms: _354  and  _356
REMARK  149  A    between atoms: _356  and  _357
REMARK  150  A    between atoms: _359  and  _361
REMARK  151  A    between atoms: _361  and  _362
REMARK  152  A    between atoms: _361  and  _364
REMARK  153  A    between atoms: _364  and  _365
REMARK  154  A    between atoms: _365  and  _366
REMARK  155  A    between atoms: _366  and  _367
REMARK  156  A    between atoms: _376  and  _378
REMARK  157  A    between atoms: _378  and  _379
REMARK  158  A    between atoms: _378  and  _381
REMARK  159  A    between atoms: _381  and  _382
REMARK  160  A    between atoms: _384  and  _386
REMARK  161  A    between atoms: _386  and  _387
REMARK  162  A    between atoms: _386  and  _389
REMARK  163  A    between atoms: _389  and  _390
REMARK  164  A    between atoms: _393  and  _395
REMARK  165  A    between atoms: _395  and  _396
REMARK  166  A    between atoms: _395  and  _398
REMARK  167  A    between atoms: _398  and  _399
REMARK  168  A    between atoms: _404  and  _405
REMARK  169  A    between atoms: _407  and  _409
REMARK  170  A    between atoms: _409  and  _410
REMARK  171  A    between atoms: _409  and  _412
REMARK  172  A    between atoms: _412  and  _413
REMARK  173  A    between atoms: _416  and  _418
REMARK  174  A    between atoms: _418  and  _419
REMARK  175  A    between atoms: _422  and  _424
REMARK  176  A    between atoms: _424  and  _425
REMARK  177  A    between atoms: _424  and  _427
REMARK  178  A    between atoms: _427  and  _428
REMARK  179  A    between atoms: _431  and  _433
REMARK  180  A    between atoms: _433  and  _434
REMARK  181  A    between atoms: _433  and  _436
REMARK  182  A    between atoms: _436  and  _437
REMARK  183  A    between atoms: _441  and  _442
REMARK  184  A    between atoms: _447  and  _449
REMARK  185  A    between atoms: _449  and  _450
REMARK  186  A    between atoms: _449  and  _452
REMARK  187  A    between atoms: _452  and  _453
REMARK  188  A    between atoms: _453  and  _454
REMARK  189  A    between atoms: _457  and  _459
REMARK  190  A    between atoms: _459  and  _460
REMARK  191  A    between atoms: _459  and  _462
REMARK  192  A    between atoms: _462  and  _463
REMARK  193  A    between atoms: _466  and  _468
REMARK  194  A    between atoms: _468  and  _469
REMARK  195  A    between atoms: _468  and  _471
REMARK  196  A    between atoms: _471  and  _472
REMARK  197  A    between atoms: _477  and  _479
REMARK  198  A    between atoms: _479  and  _480
REMARK  199  A    between atoms: _479  and  _482
REMARK  200  A    between atoms: _482  and  _483
REMARK  201  A    between atoms: _483  and  _484
REMARK  202  A    between atoms: _484  and  _485
REMARK  203  A    between atoms: _485  and  _486
REMARK  204  A    between atoms: _490  and  _492
REMARK  205  A    between atoms: _492  and  _493
REMARK  206  A    between atoms: _492  and  _495
REMARK  207  A    between atoms: _495  and  _496
REMARK                            x       y       z     vdW  Elec       q    Type
REMARK                         _______ _______ _______ _____ _____    ______ ____
ROOT
ATOM      1  O   HOH     1      24.508   0.628   6.507  0.00  0.00    +0.000 OA
ENDROOT
TORSDOF 0
REMARK  Name = ../refined-set-2016/3g1d/3g1d_pocket.pdb
REMARK  207 active torsions:
REMARK  status: ('A' for Active; 'I' for Inactive)
REMARK    1  A    between atoms: _1  and  _3
REMARK    2  A    between atoms: _3  and  _4
REMARK    3  A    between atoms: _3  and  _6
REMARK    4  A    between atoms: _6  and  _7
REMARK    5  A    between atoms: _10  and  _12
REMARK    6  A    between atoms: _12  and  _13
REMARK    7  A    between atoms: _12  and  _15
REMARK    8  A    between atoms: _15  and  _16
REMARK    9  A    between atoms: _19  and  _21
REMARK   10  A    between atoms: _21  and  _22
REMARK   11  A    between atoms: _25  and  _27
REMARK   12  A    between atoms: _27  and  _28
REMARK   13  A    between atoms: _27  and  _30
REMARK   14  A    between atoms: _30  and  _31
REMARK   15  A    between atoms: _31  and  _32
REMARK   16  A    between atoms: _34  and  _36
REMARK   17  A    between atoms: _36  and  _37
REMARK   18  A    between atoms: _36  and  _39
REMARK   19  A    between atoms: _39  and  _40
REMARK   20  A    between atoms: _43  and  _45
REMARK   21  A    between atoms: _45  and  _46
REMARK   22  A    between atoms: _45  and  _48
REMARK   23  A    between atoms: _48  and  _49
REMARK   24  A    between atoms: _49  and  _50
REMARK   25  A    between atoms: _50  and  _51
REMARK   26  A    between atoms: _51  and  _52
REMARK   27  A    between atoms: _56  and  _58
REMARK   28  A    between atoms: _58  and  _59
REMARK   29  A    between atoms: _58  and  _61
REMARK   30  A    between atoms: _61  and  _62
REMARK   31  A    between atoms: _65  and  _67
REMARK   32  A    between atoms: _67  and  _68
REMARK   33  A    between atoms: _70  and  _72
REMARK   34  A    between atoms: _72  and  _73
REMARK   35  A    between atoms: _72  and  _75
REMARK   36  A    between atoms: _75  and  _76
REMARK   37  A    between atoms: _81  and  _82
REMARK   38  A    between atoms: _85  and  _86
REMARK   39  A    between atoms: _91  and  _93
REMARK   40  A    between atoms: _93  and  _94
REMARK   41  A    between atoms: _93  and  _96
REMARK   42  A    between atoms: _96  and  _97
REMARK   43  A    between atoms: _100  and  _102
REMARK   44  A    between atoms: _102  and  _103
REMARK   45  A    between atoms: _102  and  _105
REMARK   46  A    between atoms: _105  and  _106
REMARK   47  A    between atoms: _109  and  _111
REMARK   48  A    between atoms: _111  and  _112
REMARK   49  A    between atoms: _111  and  _114
REMARK   50  A    between atoms: _114  and  _115
REMARK   51  A    between atoms: _115  and  _116
REMARK   52  A    between atoms: _116  and  _117
REMARK   53  A    between atoms: _117  and  _118
REMARK   54  A    between atoms: _122  and  _124
REMARK   55  A    between atoms: _124  and  _125
REMARK   56  A    between atoms: _124  and  _127
REMARK   57  A    between atoms: _127  and  _128
REMARK   58  A    between atoms: _131  and  _133
REMARK   59  A    between atoms: _133  and  _134
REMARK   60  A    between atoms: _133  and  _136
REMARK   61  A    between atoms: _136  and  _137
REMARK   62  A    between atoms: _142  and  _144
REMARK   63  A    between atoms: _144  and  _145
REMARK   64  A    between atoms: _144  and  _147
REMARK   65  A    between atoms: _147  and  _148
REMARK   66  A    between atoms: _151  and  _153
REMARK   67  A    between atoms: _153  and  _154
REMARK   68  A    between atoms: _153  and  _156
REMARK   69  A    between atoms: _156  and  _157
REMARK   70  A    between atoms: _160  and  _162
REMARK   71  A    between atoms: _162  and  _163
REMARK   72  A    between atoms: _162  and  _165
REMARK   73  A    between atoms: _165  and  _166
REMARK   74  A    between atoms: _166  and  _167
REMARK   75  A    between atoms: _170  and  _172
REMARK   76  A    between atoms: _172  and  _173
REMARK   77  A    between atoms: _172  and  _175
REMARK   78  A    between atoms: _175  and  _176
REMARK   79  A    between atoms: _176  and  _177
REMARK   80  A    between atoms: _179  and  _181
REMARK   81  A    between atoms: _181  and  _182
REMARK   82  A    between atoms: _181  and  _184
REMARK   83  A    between atoms: _184  and  _185
REMARK   84  A    between atoms: _187  and  _189
REMARK   85  A    between atoms: _189  and  _190
REMARK   86  A    between atoms: _189  and  _192
REMARK   87  A    between atoms: _192  and  _193
REMARK   88  A    between atoms: _198  and  _200
REMARK   89  A    between atoms: _200  and  _201
REMARK   90  A    between atoms: _204  and  _206
REMARK   91  A    between atoms: _206  and  _207
REMARK   92  A    between atoms: _206  and  _209
REMARK   93  A    between atoms: _209  and  _210
REMARK   94  A    between atoms: _213  and  _215
REMARK   95  A    between atoms: _215  and  _216
REMARK   96  A    between atoms: _215  and  _218
REMARK   97  A    between atoms: _221  and  _223
REMARK   98  A    between atoms: _223  and  _224
REMARK   99  A    between atoms: _227  and  _228
REMARK  100  A    between atoms: _233  and  _235
REMARK  101  A    between atoms: _235  and  _236
REMARK  102  A    between atoms: _235  and  _238
REMARK  103  A    between atoms: _238  and  _239
REMARK  104  A    between atoms: _241  and  _243
REMARK  105  A    between atoms: _243  and  _244
REMARK  106  A    between atoms: _243  and  _246
REMARK  107  A    between atoms: _246  and  _247
REMARK  108  A    between atoms: _250  and  _252
REMARK  109  A    between atoms: _252  and  _253
REMARK  110  A    between atoms: _252  and  _255
REMARK  111  A    between atoms: _255  and  _256
REMARK  112  A    between atoms: _256  and  _257
REMARK  113  A    between atoms: _257  and  _258
REMARK  114  A    between atoms: _267  and  _269
REMARK  115  A    between atoms: _269  and  _270
REMARK  116  A    between atoms: _269  and  _272
REMARK  117  A    between atoms: _272  and  _273
REMARK  118  A    between atoms: _276  and  _278
REMARK  119  A    between atoms: _278  and  _279
REMARK  120  A    between atoms: _278  and  _281
REMARK  121  A    between atoms: _281  and  _282
REMARK  122  A    between atoms: _285  and  _286
REMARK  123  A    between atoms: _291  and  _293
REMARK  124  A    between atoms: _293  and  _294
REMARK  125  A    between atoms: _296  and  _298
REMARK  126  A    between atoms: _298  and  _299
REMARK  127  A    between atoms: _298  and  _301
REMARK  128  A    between atoms: _304  and  _306
REMARK  129  A    between atoms: _306  and  _307
REMARK  130  A    between atoms: _309  and  _311
REMARK  131  A    between atoms: _311  and  _312
REMARK  132  A    between atoms: _315  and  _317
REMARK  133  A    between atoms: _317  and  _318
REMARK  134  A    between atoms: _317  and  _320
REMARK  135  A    between atoms: _320  and  _321
REMARK  136  A    between atoms: _321  and  _322
REMARK  137  A    between atoms: _327  and  _329
REMARK  138  A    between atoms: _329  and  _330
REMARK  139  A    between atoms: _332  and  _334
REMARK  140  A    between atoms: _334  and  _335
REMARK  141  A    between atoms: _337  and  _339
REMARK  142  A    between atoms: _339  and  _340
REMARK  143  A    between atoms: _339  and  _342
REMARK  144  A    between atoms: _342  and  _343
REMARK  145  A    between atoms: _346  and  _348
REMARK  146  A    between atoms: _348  and  _349
REMARK  147  A    between atoms: _348  and  _351
REMARK  148  A    between atoms: _354  and  _356
REMARK  149  A    between atoms: _356  and  _357
REMARK  150  A    between atoms: _359  and  _361
REMARK  151  A    between atoms: _361  and  _362
REMARK  152  A    between atoms: _361  and  _364
REMARK  153  A    between atoms: _364  and  _365
REMARK  154  A    between atoms: _365  and  _366
REMARK  155  A    between atoms: _366  and  _367
REMARK  156  A    between atoms: _376  and  _378
REMARK  157  A    between atoms: _378  and  _379
REMARK  158  A    between atoms: _378  and  _381
REMARK  159  A    between atoms: _381  and  _382
REMARK  160  A    between atoms: _384  and  _386
REMARK  161  A    between atoms: _386  and  _387
REMARK  162  A    between atoms: _386  and  _389
REMARK  163  A    between atoms: _389  and  _390
REMARK  164  A    between atoms: _393  and  _395
REMARK  165  A    between atoms: _395  and  _396
REMARK  166  A    between atoms: _395  and  _398
REMARK  167  A    between atoms: _398  and  _399
REMARK  168  A    between atoms: _404  and  _405
REMARK  169  A    between atoms: _407  and  _409
REMARK  170  A    between atoms: _409  and  _410
REMARK  171  A    between atoms: _409  and  _412
REMARK  172  A    between atoms: _412  and  _413
REMARK  173  A    between atoms: _416  and  _418
REMARK  174  A    between atoms: _418  and  _419
REMARK  175  A    between atoms: _422  and  _424
REMARK  176  A    between atoms: _424  and  _425
REMARK  177  A    between atoms: _424  and  _427
REMARK  178  A    between atoms: _427  and  _428
REMARK  179  A    between atoms: _431  and  _433
REMARK  180  A    between atoms: _433  and  _434
REMARK  181  A    between atoms: _433  and  _436
REMARK  182  A    between atoms: _436  and  _437
REMARK  183  A    between atoms: _441  and  _442
REMARK  184  A    between atoms: _447  and  _449
REMARK  185  A    between atoms: _449  and  _450
REMARK  186  A    between atoms: _449  and  _452
REMARK  187  A    between atoms: _452  and  _453
REMARK  188  A    between atoms: _453  and  _454
REMARK  189  A    between atoms: _457  and  _459
REMARK  190  A    between atoms: _459  and  _460
REMARK  191  A    between atoms: _459  and  _462
REMARK  192  A    between atoms: _462  and  _463
REMARK  193  A    between atoms: _466  and  _468
REMARK  194  A    between atoms: _468  and  _469
REMARK  195  A    between atoms: _468  and  _471
REMARK  196  A    between atoms: _471  and  _472
REMARK  197  A    between atoms: _477  and  _479
REMARK  198  A    between atoms: _479  and  _480
REMARK  199  A    between atoms: _479  and  _482
REMARK  200  A    between atoms: _482  and  _483
REMARK  201  A    between atoms: _483  and  _484
REMARK  202  A    between atoms: _484  and  _485
REMARK  203  A    between atoms: _485  and  _486
REMARK  204  A    between atoms: _490  and  _492
REMARK  205  A    between atoms: _492  and  _493
REMARK  206  A    between atoms: _492  and  _495
REMARK  207  A    between atoms: _495  and  _496
REMARK                            x       y       z     vdW  Elec       q    Type
REMARK                         _______ _______ _______ _____ _____    ______ ____
ROOT
ATOM      1  O   HOH     1      25.027  -2.320   4.975  0.00  0.00    +0.000 OA
ENDROOT
TORSDOF 0
REMARK  Name = ../refined-set-2016/3g1d/3g1d_pocket.pdb
REMARK  207 active torsions:
REMARK  status: ('A' for Active; 'I' for Inactive)
REMARK    1  A    between atoms: _1  and  _3
REMARK    2  A    between atoms: _3  and  _4
REMARK    3  A    between atoms: _3  and  _6
REMARK    4  A    between atoms: _6  and  _7
REMARK    5  A    between atoms: _10  and  _12
REMARK    6  A    between atoms: _12  and  _13
REMARK    7  A    between atoms: _12  and  _15
REMARK    8  A    between atoms: _15  and  _16
REMARK    9  A    between atoms: _19  and  _21
REMARK   10  A    between atoms: _21  and  _22
REMARK   11  A    between atoms: _25  and  _27
REMARK   12  A    between atoms: _27  and  _28
REMARK   13  A    between atoms: _27  and  _30
REMARK   14  A    between atoms: _30  and  _31
REMARK   15  A    between atoms: _31  and  _32
REMARK   16  A    between atoms: _34  and  _36
REMARK   17  A    between atoms: _36  and  _37
REMARK   18  A    between atoms: _36  and  _39
REMARK   19  A    between atoms: _39  and  _40
REMARK   20  A    between atoms: _43  and  _45
REMARK   21  A    between atoms: _45  and  _46
REMARK   22  A    between atoms: _45  and  _48
REMARK   23  A    between atoms: _48  and  _49
REMARK   24  A    between atoms: _49  and  _50
REMARK   25  A    between atoms: _50  and  _51
REMARK   26  A    between atoms: _51  and  _52
REMARK   27  A    between atoms: _56  and  _58
REMARK   28  A    between atoms: _58  and  _59
REMARK   29  A    between atoms: _58  and  _61
REMARK   30  A    between atoms: _61  and  _62
REMARK   31  A    between atoms: _65  and  _67
REMARK   32  A    between atoms: _67  and  _68
REMARK   33  A    between atoms: _70  and  _72
REMARK   34  A    between atoms: _72  and  _73
REMARK   35  A    between atoms: _72  and  _75
REMARK   36  A    between atoms: _75  and  _76
REMARK   37  A    between atoms: _81  and  _82
REMARK   38  A    between atoms: _85  and  _86
REMARK   39  A    between atoms: _91  and  _93
REMARK   40  A    between atoms: _93  and  _94
REMARK   41  A    between atoms: _93  and  _96
REMARK   42  A    between atoms: _96  and  _97
REMARK   43  A    between atoms: _100  and  _102
REMARK   44  A    between atoms: _102  and  _103
REMARK   45  A    between atoms: _102  and  _105
REMARK   46  A    between atoms: _105  and  _106
REMARK   47  A    between atoms: _109  and  _111
REMARK   48  A    between atoms: _111  and  _112
REMARK   49  A    between atoms: _111  and  _114
REMARK   50  A    between atoms: _114  and  _115
REMARK   51  A    between atoms: _115  and  _116
REMARK   52  A    between atoms: _116  and  _117
REMARK   53  A    between atoms: _117  and  _118
REMARK   54  A    between atoms: _122  and  _124
REMARK   55  A    between atoms: _124  and  _125
REMARK   56  A    between atoms: _124  and  _127
REMARK   57  A    between atoms: _127  and  _128
REMARK   58  A    between atoms: _131  and  _133
REMARK   59  A    between atoms: _133  and  _134
REMARK   60  A    between atoms: _133  and  _136
REMARK   61  A    between atoms: _136  and  _137
REMARK   62  A    between atoms: _142  and  _144
REMARK   63  A    between atoms: _144  and  _145
REMARK   64  A    between atoms: _144  and  _147
REMARK   65  A    between atoms: _147  and  _148
REMARK   66  A    between atoms: _151  and  _153
REMARK   67  A    between atoms: _153  and  _154
REMARK   68  A    between atoms: _153  and  _156
REMARK   69  A    between atoms: _156  and  _157
REMARK   70  A    between atoms: _160  and  _162
REMARK   71  A    between atoms: _162  and  _163
REMARK   72  A    between atoms: _162  and  _165
REMARK   73  A    between atoms: _165  and  _166
REMARK   74  A    between atoms: _166  and  _167
REMARK   75  A    between atoms: _170  and  _172
REMARK   76  A    between atoms: _172  and  _173
REMARK   77  A    between atoms: _172  and  _175
REMARK   78  A    between atoms: _175  and  _176
REMARK   79  A    between atoms: _176  and  _177
REMARK   80  A    between atoms: _179  and  _181
REMARK   81  A    between atoms: _181  and  _182
REMARK   82  A    between atoms: _181  and  _184
REMARK   83  A    between atoms: _184  and  _185
REMARK   84  A    between atoms: _187  and  _189
REMARK   85  A    between atoms: _189  and  _190
REMARK   86  A    between atoms: _189  and  _192
REMARK   87  A    between atoms: _192  and  _193
REMARK   88  A    between atoms: _198  and  _200
REMARK   89  A    between atoms: _200  and  _201
REMARK   90  A    between atoms: _204  and  _206
REMARK   91  A    between atoms: _206  and  _207
REMARK   92  A    between atoms: _206  and  _209
REMARK   93  A    between atoms: _209  and  _210
REMARK   94  A    between atoms: _213  and  _215
REMARK   95  A    between atoms: _215  and  _216
REMARK   96  A    between atoms: _215  and  _218
REMARK   97  A    between atoms: _221  and  _223
REMARK   98  A    between atoms: _223  and  _224
REMARK   99  A    between atoms: _227  and  _228
REMARK  100  A    between atoms: _233  and  _235
REMARK  101  A    between atoms: _235  and  _236
REMARK  102  A    between atoms: _235  and  _238
REMARK  103  A    between atoms: _238  and  _239
REMARK  104  A    between atoms: _241  and  _243
REMARK  105  A    between atoms: _243  and  _244
REMARK  106  A    between atoms: _243  and  _246
REMARK  107  A    between atoms: _246  and  _247
REMARK  108  A    between atoms: _250  and  _252
REMARK  109  A    between atoms: _252  and  _253
REMARK  110  A    between atoms: _252  and  _255
REMARK  111  A    between atoms: _255  and  _256
REMARK  112  A    between atoms: _256  and  _257
REMARK  113  A    between atoms: _257  and  _258
REMARK  114  A    between atoms: _267  and  _269
REMARK  115  A    between atoms: _269  and  _270
REMARK  116  A    between atoms: _269  and  _272
REMARK  117  A    between atoms: _272  and  _273
REMARK  118  A    between atoms: _276  and  _278
REMARK  119  A    between atoms: _278  and  _279
REMARK  120  A    between atoms: _278  and  _281
REMARK  121  A    between atoms: _281  and  _282
REMARK  122  A    between atoms: _285  and  _286
REMARK  123  A    between atoms: _291  and  _293
REMARK  124  A    between atoms: _293  and  _294
REMARK  125  A    between atoms: _296  and  _298
REMARK  126  A    between atoms: _298  and  _299
REMARK  127  A    between atoms: _298  and  _301
REMARK  128  A    between atoms: _304  and  _306
REMARK  129  A    between atoms: _306  and  _307
REMARK  130  A    between atoms: _309  and  _311
REMARK  131  A    between atoms: _311  and  _312
REMARK  132  A    between atoms: _315  and  _317
REMARK  133  A    between atoms: _317  and  _318
REMARK  134  A    between atoms: _317  and  _320
REMARK  135  A    between atoms: _320  and  _321
REMARK  136  A    between atoms: _321  and  _322
REMARK  137  A    between atoms: _327  and  _329
REMARK  138  A    between atoms: _329  and  _330
REMARK  139  A    between atoms: _332  and  _334
REMARK  140  A    between atoms: _334  and  _335
REMARK  141  A    between atoms: _337  and  _339
REMARK  142  A    between atoms: _339  and  _340
REMARK  143  A    between atoms: _339  and  _342
REMARK  144  A    between atoms: _342  and  _343
REMARK  145  A    between atoms: _346  and  _348
REMARK  146  A    between atoms: _348  and  _349
REMARK  147  A    between atoms: _348  and  _351
REMARK  148  A    between atoms: _354  and  _356
REMARK  149  A    between atoms: _356  and  _357
REMARK  150  A    between atoms: _359  and  _361
REMARK  151  A    between atoms: _361  and  _362
REMARK  152  A    between atoms: _361  and  _364
REMARK  153  A    between atoms: _364  and  _365
REMARK  154  A    between atoms: _365  and  _366
REMARK  155  A    between atoms: _366  and  _367
REMARK  156  A    between atoms: _376  and  _378
REMARK  157  A    between atoms: _378  and  _379
REMARK  158  A    between atoms: _378  and  _381
REMARK  159  A    between atoms: _381  and  _382
REMARK  160  A    between atoms: _384  and  _386
REMARK  161  A    between atoms: _386  and  _387
REMARK  162  A    between atoms: _386  and  _389
REMARK  163  A    between atoms: _389  and  _390
REMARK  164  A    between atoms: _393  and  _395
REMARK  165  A    between atoms: _395  and  _396
REMARK  166  A    between atoms: _395  and  _398
REMARK  167  A    between atoms: _398  and  _399
REMARK  168  A    between atoms: _404  and  _405
REMARK  169  A    between atoms: _407  and  _409
REMARK  170  A    between atoms: _409  and  _410
REMARK  171  A    between atoms: _409  and  _412
REMARK  172  A    between atoms: _412  and  _413
REMARK  173  A    between atoms: _416  and  _418
REMARK  174  A    between atoms: _418  and  _419
REMARK  175  A    between atoms: _422  and  _424
REMARK  176  A    between atoms: _424  and  _425
REMARK  177  A    between atoms: _424  and  _427
REMARK  178  A    between atoms: _427  and  _428
REMARK  179  A    between atoms: _431  and  _433
REMARK  180  A    between atoms: _433  and  _434
REMARK  181  A    between atoms: _433  and  _436
REMARK  182  A    between atoms: _436  and  _437
REMARK  183  A    between atoms: _441  and  _442
REMARK  184  A    between atoms: _447  and  _449
REMARK  185  A    between atoms: _449  and  _450
REMARK  186  A    between atoms: _449  and  _452
REMARK  187  A    between atoms: _452  and  _453
REMARK  188  A    between atoms: _453  and  _454
REMARK  189  A    between atoms: _457  and  _459
REMARK  190  A    between atoms: _459  and  _460
REMARK  191  A    between atoms: _459  and  _462
REMARK  192  A    between atoms: _462  and  _463
REMARK  193  A    between atoms: _466  and  _468
REMARK  194  A    between atoms: _468  and  _469
REMARK  195  A    between atoms: _468  and  _471
REMARK  196  A    between atoms: _471  and  _472
REMARK  197  A    between atoms: _477  and  _479
REMARK  198  A    between atoms: _479  and  _480
REMARK  199  A    between atoms: _479  and  _482
REMARK  200  A    between atoms: _482  and  _483
REMARK  201  A    between atoms: _483  and  _484
REMARK  202  A    between atoms: _484  and  _485
REMARK  203  A    between atoms: _485  and  _486
REMARK  204  A    between atoms: _490  and  _492
REMARK  205  A    between atoms: _492  and  _493
REMARK  206  A    between atoms: _492  and  _495
REMARK  207  A    between atoms: _495  and  _496
REMARK                            x       y       z     vdW  Elec       q    Type
REMARK                         _______ _______ _______ _____ _____    ______ ____
ROOT
ATOM      1  O   HOH     1      19.624  -0.352  14.654  0.00  0.00    +0.000 OA
ENDROOT
TORSDOF 0
REMARK  Name = ../refined-set-2016/3g1d/3g1d_pocket.pdb
REMARK  207 active torsions:
REMARK  status: ('A' for Active; 'I' for Inactive)
REMARK    1  A    between atoms: _1  and  _3
REMARK    2  A    between atoms: _3  and  _4
REMARK    3  A    between atoms: _3  and  _6
REMARK    4  A    between atoms: _6  and  _7
REMARK    5  A    between atoms: _10  and  _12
REMARK    6  A    between atoms: _12  and  _13
REMARK    7  A    between atoms: _12  and  _15
REMARK    8  A    between atoms: _15  and  _16
REMARK    9  A    between atoms: _19  and  _21
REMARK   10  A    between atoms: _21  and  _22
REMARK   11  A    between atoms: _25  and  _27
REMARK   12  A    between atoms: _27  and  _28
REMARK   13  A    between atoms: _27  and  _30
REMARK   14  A    between atoms: _30  and  _31
REMARK   15  A    between atoms: _31  and  _32
REMARK   16  A    between atoms: _34  and  _36
REMARK   17  A    between atoms: _36  and  _37
REMARK   18  A    between atoms: _36  and  _39
REMARK   19  A    between atoms: _39  and  _40
REMARK   20  A    between atoms: _43  and  _45
REMARK   21  A    between atoms: _45  and  _46
REMARK   22  A    between atoms: _45  and  _48
REMARK   23  A    between atoms: _48  and  _49
REMARK   24  A    between atoms: _49  and  _50
REMARK   25  A    between atoms: _50  and  _51
REMARK   26  A    between atoms: _51  and  _52
REMARK   27  A    between atoms: _56  and  _58
REMARK   28  A    between atoms: _58  and  _59
REMARK   29  A    between atoms: _58  and  _61
REMARK   30  A    between atoms: _61  and  _62
REMARK   31  A    between atoms: _65  and  _67
REMARK   32  A    between atoms: _67  and  _68
REMARK   33  A    between atoms: _70  and  _72
REMARK   34  A    between atoms: _72  and  _73
REMARK   35  A    between atoms: _72  and  _75
REMARK   36  A    between atoms: _75  and  _76
REMARK   37  A    between atoms: _81  and  _82
REMARK   38  A    between atoms: _85  and  _86
REMARK   39  A    between atoms: _91  and  _93
REMARK   40  A    between atoms: _93  and  _94
REMARK   41  A    between atoms: _93  and  _96
REMARK   42  A    between atoms: _96  and  _97
REMARK   43  A    between atoms: _100  and  _102
REMARK   44  A    between atoms: _102  and  _103
REMARK   45  A    between atoms: _102  and  _105
REMARK   46  A    between atoms: _105  and  _106
REMARK   47  A    between atoms: _109  and  _111
REMARK   48  A    between atoms: _111  and  _112
REMARK   49  A    between atoms: _111  and  _114
REMARK   50  A    between atoms: _114  and  _115
REMARK   51  A    between atoms: _115  and  _116
REMARK   52  A    between atoms: _116  and  _117
REMARK   53  A    between atoms: _117  and  _118
REMARK   54  A    between atoms: _122  and  _124
REMARK   55  A    between atoms: _124  and  _125
REMARK   56  A    between atoms: _124  and  _127
REMARK   57  A    between atoms: _127  and  _128
REMARK   58  A    between atoms: _131  and  _133
REMARK   59  A    between atoms: _133  and  _134
REMARK   60  A    between atoms: _133  and  _136
REMARK   61  A    between atoms: _136  and  _137
REMARK   62  A    between atoms: _142  and  _144
REMARK   63  A    between atoms: _144  and  _145
REMARK   64  A    between atoms: _144  and  _147
REMARK   65  A    between atoms: _147  and  _148
REMARK   66  A    between atoms: _151  and  _153
REMARK   67  A    between atoms: _153  and  _154
REMARK   68  A    between atoms: _153  and  _156
REMARK   69  A    between atoms: _156  and  _157
REMARK   70  A    between atoms: _160  and  _162
REMARK   71  A    between atoms: _162  and  _163
REMARK   72  A    between atoms: _162  and  _165
REMARK   73  A    between atoms: _165  and  _166
REMARK   74  A    between atoms: _166  and  _167
REMARK   75  A    between atoms: _170  and  _172
REMARK   76  A    between atoms: _172  and  _173
REMARK   77  A    between atoms: _172  and  _175
REMARK   78  A    between atoms: _175  and  _176
REMARK   79  A    between atoms: _176  and  _177
REMARK   80  A    between atoms: _179  and  _181
REMARK   81  A    between atoms: _181  and  _182
REMARK   82  A    between atoms: _181  and  _184
REMARK   83  A    between atoms: _184  and  _185
REMARK   84  A    between atoms: _187  and  _189
REMARK   85  A    between atoms: _189  and  _190
REMARK   86  A    between atoms: _189  and  _192
REMARK   87  A    between atoms: _192  and  _193
REMARK   88  A    between atoms: _198  and  _200
REMARK   89  A    between atoms: _200  and  _201
REMARK   90  A    between atoms: _204  and  _206
REMARK   91  A    between atoms: _206  and  _207
REMARK   92  A    between atoms: _206  and  _209
REMARK   93  A    between atoms: _209  and  _210
REMARK   94  A    between atoms: _213  and  _215
REMARK   95  A    between atoms: _215  and  _216
REMARK   96  A    between atoms: _215  and  _218
REMARK   97  A    between atoms: _221  and  _223
REMARK   98  A    between atoms: _223  and  _224
REMARK   99  A    between atoms: _227  and  _228
REMARK  100  A    between atoms: _233  and  _235
REMARK  101  A    between atoms: _235  and  _236
REMARK  102  A    between atoms: _235  and  _238
REMARK  103  A    between atoms: _238  and  _239
REMARK  104  A    between atoms: _241  and  _243
REMARK  105  A    between atoms: _243  and  _244
REMARK  106  A    between atoms: _243  and  _246
REMARK  107  A    between atoms: _246  and  _247
REMARK  108  A    between atoms: _250  and  _252
REMARK  109  A    between atoms: _252  and  _253
REMARK  110  A    between atoms: _252  and  _255
REMARK  111  A    between atoms: _255  and  _256
REMARK  112  A    between atoms: _256  and  _257
REMARK  113  A    between atoms: _257  and  _258
REMARK  114  A    between atoms: _267  and  _269
REMARK  115  A    between atoms: _269  and  _270
REMARK  116  A    between atoms: _269  and  _272
REMARK  117  A    between atoms: _272  and  _273
REMARK  118  A    between atoms: _276  and  _278
REMARK  119  A    between atoms: _278  and  _279
REMARK  120  A    between atoms: _278  and  _281
REMARK  121  A    between atoms: _281  and  _282
REMARK  122  A    between atoms: _285  and  _286
REMARK  123  A    between atoms: _291  and  _293
REMARK  124  A    between atoms: _293  and  _294
REMARK  125  A    between atoms: _296  and  _298
REMARK  126  A    between atoms: _298  and  _299
REMARK  127  A    between atoms: _298  and  _301
REMARK  128  A    between atoms: _304  and  _306
REMARK  129  A    between atoms: _306  and  _307
REMARK  130  A    between atoms: _309  and  _311
REMARK  131  A    between atoms: _311  and  _312
REMARK  132  A    between atoms: _315  and  _317
REMARK  133  A    between atoms: _317  and  _318
REMARK  134  A    between atoms: _317  and  _320
REMARK  135  A    between atoms: _320  and  _321
REMARK  136  A    between atoms: _321  and  _322
REMARK  137  A    between atoms: _327  and  _329
REMARK  138  A    between atoms: _329  and  _330
REMARK  139  A    between atoms: _332  and  _334
REMARK  140  A    between atoms: _334  and  _335
REMARK  141  A    between atoms: _337  and  _339
REMARK  142  A    between atoms: _339  and  _340
REMARK  143  A    between atoms: _339  and  _342
REMARK  144  A    between atoms: _342  and  _343
REMARK  145  A    between atoms: _346  and  _348
REMARK  146  A    between atoms: _348  and  _349
REMARK  147  A    between atoms: _348  and  _351
REMARK  148  A    between atoms: _354  and  _356
REMARK  149  A    between atoms: _356  and  _357
REMARK  150  A    between atoms: _359  and  _361
REMARK  151  A    between atoms: _361  and  _362
REMARK  152  A    between atoms: _361  and  _364
REMARK  153  A    between atoms: _364  and  _365
REMARK  154  A    between atoms: _365  and  _366
REMARK  155  A    between atoms: _366  and  _367
REMARK  156  A    between atoms: _376  and  _378
REMARK  157  A    between atoms: _378  and  _379
REMARK  158  A    between atoms: _378  and  _381
REMARK  159  A    between atoms: _381  and  _382
REMARK  160  A    between atoms: _384  and  _386
REMARK  161  A    between atoms: _386  and  _387
REMARK  162  A    between atoms: _386  and  _389
REMARK  163  A    between atoms: _389  and  _390
REMARK  164  A    between atoms: _393  and  _395
REMARK  165  A    between atoms: _395  and  _396
REMARK  166  A    between atoms: _395  and  _398
REMARK  167  A    between atoms: _398  and  _399
REMARK  168  A    between atoms: _404  and  _405
REMARK  169  A    between atoms: _407  and  _409
REMARK  170  A    between atoms: _409  and  _410
REMARK  171  A    between atoms: _409  and  _412
REMARK  172  A    between atoms: _412  and  _413
REMARK  173  A    between atoms: _416  and  _418
REMARK  174  A    between atoms: _418  and  _419
REMARK  175  A    between atoms: _422  and  _424
REMARK  176  A    between atoms: _424  and  _425
REMARK  177  A    between atoms: _424  and  _427
REMARK  178  A    between atoms: _427  and  _428
REMARK  179  A    between atoms: _431  and  _433
REMARK  180  A    between atoms: _433  and  _434
REMARK  181  A    between atoms: _433  and  _436
REMARK  182  A    between atoms: _436  and  _437
REMARK  183  A    between atoms: _441  and  _442
REMARK  184  A    between atoms: _447  and  _449
REMARK  185  A    between atoms: _449  and  _450
REMARK  186  A    between atoms: _449  and  _452
REMARK  187  A    between atoms: _452  and  _453
REMARK  188  A    between atoms: _453  and  _454
REMARK  189  A    between atoms: _457  and  _459
REMARK  190  A    between atoms: _459  and  _460
REMARK  191  A    between atoms: _459  and  _462
REMARK  192  A    between atoms: _462  and  _463
REMARK  193  A    between atoms: _466  and  _468
REMARK  194  A    between atoms: _468  and  _469
REMARK  195  A    between atoms: _468  and  _471
REMARK  196  A    between atoms: _471  and  _472
REMARK  197  A    between atoms: _477  and  _479
REMARK  198  A    between atoms: _479  and  _480
REMARK  199  A    between atoms: _479  and  _482
REMARK  200  A    between atoms: _482  and  _483
REMARK  201  A    between atoms: _483  and  _484
REMARK  202  A    between atoms: _484  and  _485
REMARK  203  A    between atoms: _485  and  _486
REMARK  204  A    between atoms: _490  and  _492
REMARK  205  A    between atoms: _492  and  _493
REMARK  206  A    between atoms: _492  and  _495
REMARK  207  A    between atoms: _495  and  _496
REMARK                            x       y       z     vdW  Elec       q    Type
REMARK                         _______ _______ _______ _____ _____    ______ ____
ROOT
ATOM      1  O   HOH     1      15.725   3.976  10.533  0.00  0.00    +0.000 OA
ENDROOT
TORSDOF 0
REMARK  Name = ../refined-set-2016/3g1d/3g1d_pocket.pdb
REMARK  207 active torsions:
REMARK  status: ('A' for Active; 'I' for Inactive)
REMARK    1  A    between atoms: _1  and  _3
REMARK    2  A    between atoms: _3  and  _4
REMARK    3  A    between atoms: _3  and  _6
REMARK    4  A    between atoms: _6  and  _7
REMARK    5  A    between atoms: _10  and  _12
REMARK    6  A    between atoms: _12  and  _13
REMARK    7  A    between atoms: _12  and  _15
REMARK    8  A    between atoms: _15  and  _16
REMARK    9  A    between atoms: _19  and  _21
REMARK   10  A    between atoms: _21  and  _22
REMARK   11  A    between atoms: _25  and  _27
REMARK   12  A    between atoms: _27  and  _28
REMARK   13  A    between atoms: _27  and  _30
REMARK   14  A    between atoms: _30  and  _31
REMARK   15  A    between atoms: _31  and  _32
REMARK   16  A    between atoms: _34  and  _36
REMARK   17  A    between atoms: _36  and  _37
REMARK   18  A    between atoms: _36  and  _39
REMARK   19  A    between atoms: _39  and  _40
REMARK   20  A    between atoms: _43  and  _45
REMARK   21  A    between atoms: _45  and  _46
REMARK   22  A    between atoms: _45  and  _48
REMARK   23  A    between atoms: _48  and  _49
REMARK   24  A    between atoms: _49  and  _50
REMARK   25  A    between atoms: _50  and  _51
REMARK   26  A    between atoms: _51  and  _52
REMARK   27  A    between atoms: _56  and  _58
REMARK   28  A    between atoms: _58  and  _59
REMARK   29  A    between atoms: _58  and  _61
REMARK   30  A    between atoms: _61  and  _62
REMARK   31  A    between atoms: _65  and  _67
REMARK   32  A    between atoms: _67  and  _68
REMARK   33  A    between atoms: _70  and  _72
REMARK   34  A    between atoms: _72  and  _73
REMARK   35  A    between atoms: _72  and  _75
REMARK   36  A    between atoms: _75  and  _76
REMARK   37  A    between atoms: _81  and  _82
REMARK   38  A    between atoms: _85  and  _86
REMARK   39  A    between atoms: _91  and  _93
REMARK   40  A    between atoms: _93  and  _94
REMARK   41  A    between atoms: _93  and  _96
REMARK   42  A    between atoms: _96  and  _97
REMARK   43  A    between atoms: _100  and  _102
REMARK   44  A    between atoms: _102  and  _103
REMARK   45  A    between atoms: _102  and  _105
REMARK   46  A    between atoms: _105  and  _106
REMARK   47  A    between atoms: _109  and  _111
REMARK   48  A    between atoms: _111  and  _112
REMARK   49  A    between atoms: _111  and  _114
REMARK   50  A    between atoms: _114  and  _115
REMARK   51  A    between atoms: _115  and  _116
REMARK   52  A    between atoms: _116  and  _117
REMARK   53  A    between atoms: _117  and  _118
REMARK   54  A    between atoms: _122  and  _124
REMARK   55  A    between atoms: _124  and  _125
REMARK   56  A    between atoms: _124  and  _127
REMARK   57  A    between atoms: _127  and  _128
REMARK   58  A    between atoms: _131  and  _133
REMARK   59  A    between atoms: _133  and  _134
REMARK   60  A    between atoms: _133  and  _136
REMARK   61  A    between atoms: _136  and  _137
REMARK   62  A    between atoms: _142  and  _144
REMARK   63  A    between atoms: _144  and  _145
REMARK   64  A    between atoms: _144  and  _147
REMARK   65  A    between atoms: _147  and  _148
REMARK   66  A    between atoms: _151  and  _153
REMARK   67  A    between atoms: _153  and  _154
REMARK   68  A    between atoms: _153  and  _156
REMARK   69  A    between atoms: _156  and  _157
REMARK   70  A    between atoms: _160  and  _162
REMARK   71  A    between atoms: _162  and  _163
REMARK   72  A    between atoms: _162  and  _165
REMARK   73  A    between atoms: _165  and  _166
REMARK   74  A    between atoms: _166  and  _167
REMARK   75  A    between atoms: _170  and  _172
REMARK   76  A    between atoms: _172  and  _173
REMARK   77  A    between atoms: _172  and  _175
REMARK   78  A    between atoms: _175  and  _176
REMARK   79  A    between atoms: _176  and  _177
REMARK   80  A    between atoms: _179  and  _181
REMARK   81  A    between atoms: _181  and  _182
REMARK   82  A    between atoms: _181  and  _184
REMARK   83  A    between atoms: _184  and  _185
REMARK   84  A    between atoms: _187  and  _189
REMARK   85  A    between atoms: _189  and  _190
REMARK   86  A    between atoms: _189  and  _192
REMARK   87  A    between atoms: _192  and  _193
REMARK   88  A    between atoms: _198  and  _200
REMARK   89  A    between atoms: _200  and  _201
REMARK   90  A    between atoms: _204  and  _206
REMARK   91  A    between atoms: _206  and  _207
REMARK   92  A    between atoms: _206  and  _209
REMARK   93  A    between atoms: _209  and  _210
REMARK   94  A    between atoms: _213  and  _215
REMARK   95  A    between atoms: _215  and  _216
REMARK   96  A    between atoms: _215  and  _218
REMARK   97  A    between atoms: _221  and  _223
REMARK   98  A    between atoms: _223  and  _224
REMARK   99  A    between atoms: _227  and  _228
REMARK  100  A    between atoms: _233  and  _235
REMARK  101  A    between atoms: _235  and  _236
REMARK  102  A    between atoms: _235  and  _238
REMARK  103  A    between atoms: _238  and  _239
REMARK  104  A    between atoms: _241  and  _243
REMARK  105  A    between atoms: _243  and  _244
REMARK  106  A    between atoms: _243  and  _246
REMARK  107  A    between atoms: _246  and  _247
REMARK  108  A    between atoms: _250  and  _252
REMARK  109  A    between atoms: _252  and  _253
REMARK  110  A    between atoms: _252  and  _255
REMARK  111  A    between atoms: _255  and  _256
REMARK  112  A    between atoms: _256  and  _257
REMARK  113  A    between atoms: _257  and  _258
REMARK  114  A    between atoms: _267  and  _269
REMARK  115  A    between atoms: _269  and  _270
REMARK  116  A    between atoms: _269  and  _272
REMARK  117  A    between atoms: _272  and  _273
REMARK  118  A    between atoms: _276  and  _278
REMARK  119  A    between atoms: _278  and  _279
REMARK  120  A    between atoms: _278  and  _281
REMARK  121  A    between atoms: _281  and  _282
REMARK  122  A    between atoms: _285  and  _286
REMARK  123  A    between atoms: _291  and  _293
REMARK  124  A    between atoms: _293  and  _294
REMARK  125  A    between atoms: _296  and  _298
REMARK  126  A    between atoms: _298  and  _299
REMARK  127  A    between atoms: _298  and  _301
REMARK  128  A    between atoms: _304  and  _306
REMARK  129  A    between atoms: _306  and  _307
REMARK  130  A    between atoms: _309  and  _311
REMARK  131  A    between atoms: _311  and  _312
REMARK  132  A    between atoms: _315  and  _317
REMARK  133  A    between atoms: _317  and  _318
REMARK  134  A    between atoms: _317  and  _320
REMARK  135  A    between atoms: _320  and  _321
REMARK  136  A    between atoms: _321  and  _322
REMARK  137  A    between atoms: _327  and  _329
REMARK  138  A    between atoms: _329  and  _330
REMARK  139  A    between atoms: _332  and  _334
REMARK  140  A    between atoms: _334  and  _335
REMARK  141  A    between atoms: _337  and  _339
REMARK  142  A    between atoms: _339  and  _340
REMARK  143  A    between atoms: _339  and  _342
REMARK  144  A    between atoms: _342  and  _343
REMARK  145  A    between atoms: _346  and  _348
REMARK  146  A    between atoms: _348  and  _349
REMARK  147  A    between atoms: _348  and  _351
REMARK  148  A    between atoms: _354  and  _356
REMARK  149  A    between atoms: _356  and  _357
REMARK  150  A    between atoms: _359  and  _361
REMARK  151  A    between atoms: _361  and  _362
REMARK  152  A    between atoms: _361  and  _364
REMARK  153  A    between atoms: _364  and  _365
REMARK  154  A    between atoms: _365  and  _366
REMARK  155  A    between atoms: _366  and  _367
REMARK  156  A    between atoms: _376  and  _378
REMARK  157  A    between atoms: _378  and  _379
REMARK  158  A    between atoms: _378  and  _381
REMARK  159  A    between atoms: _381  and  _382
REMARK  160  A    between atoms: _384  and  _386
REMARK  161  A    between atoms: _386  and  _387
REMARK  162  A    between atoms: _386  and  _389
REMARK  163  A    between atoms: _389  and  _390
REMARK  164  A    between atoms: _393  and  _395
REMARK  165  A    between atoms: _395  and  _396
REMARK  166  A    between atoms: _395  and  _398
REMARK  167  A    between atoms: _398  and  _399
REMARK  168  A    between atoms: _404  and  _405
REMARK  169  A    between atoms: _407  and  _409
REMARK  170  A    between atoms: _409  and  _410
REMARK  171  A    between atoms: _409  and  _412
REMARK  172  A    between atoms: _412  and  _413
REMARK  173  A    between atoms: _416  and  _418
REMARK  174  A    between atoms: _418  and  _419
REMARK  175  A    between atoms: _422  and  _424
REMARK  176  A    between atoms: _424  and  _425
REMARK  177  A    between atoms: _424  and  _427
REMARK  178  A    between atoms: _427  and  _428
REMARK  179  A    between atoms: _431  and  _433
REMARK  180  A    between atoms: _433  and  _434
REMARK  181  A    between atoms: _433  and  _436
REMARK  182  A    between atoms: _436  and  _437
REMARK  183  A    between atoms: _441  and  _442
REMARK  184  A    between atoms: _447  and  _449
REMARK  185  A    between atoms: _449  and  _450
REMARK  186  A    between atoms: _449  and  _452
REMARK  187  A    between atoms: _452  and  _453
REMARK  188  A    between atoms: _453  and  _454
REMARK  189  A    between atoms: _457  and  _459
REMARK  190  A    between atoms: _459  and  _460
REMARK  191  A    between atoms: _459  and  _462
REMARK  192  A    between atoms: _462  and  _463
REMARK  193  A    between atoms: _466  and  _468
REMARK  194  A    between atoms: _468  and  _469
REMARK  195  A    between atoms: _468  and  _471
REMARK  196  A    between atoms: _471  and  _472
REMARK  197  A    between atoms: _477  and  _479
REMARK  198  A    between atoms: _479  and  _480
REMARK  199  A    between atoms: _479  and  _482
REMARK  200  A    between atoms: _482  and  _483
REMARK  201  A    between atoms: _483  and  _484
REMARK  202  A    between atoms: _484  and  _485
REMARK  203  A    between atoms: _485  and  _486
REMARK  204  A    between atoms: _490  and  _492
REMARK  205  A    between atoms: _492  and  _493
REMARK  206  A    between atoms: _492  and  _495
REMARK  207  A    between atoms: _495  and  _496
REMARK                            x       y       z     vdW  Elec       q    Type
REMARK                         _______ _______ _______ _____ _____    ______ ____
ROOT
ATOM      1  O   HOH     1      20.889  -6.311   1.004  0.00  0.00    +0.000 OA
ENDROOT
TORSDOF 0
REMARK  Name = ../refined-set-2016/3g1d/3g1d_pocket.pdb
REMARK  207 active torsions:
REMARK  status: ('A' for Active; 'I' for Inactive)
REMARK    1  A    between atoms: _1  and  _3
REMARK    2  A    between atoms: _3  and  _4
REMARK    3  A    between atoms: _3  and  _6
REMARK    4  A    between atoms: _6  and  _7
REMARK    5  A    between atoms: _10  and  _12
REMARK    6  A    between atoms: _12  and  _13
REMARK    7  A    between atoms: _12  and  _15
REMARK    8  A    between atoms: _15  and  _16
REMARK    9  A    between atoms: _19  and  _21
REMARK   10  A    between atoms: _21  and  _22
REMARK   11  A    between atoms: _25  and  _27
REMARK   12  A    between atoms: _27  and  _28
REMARK   13  A    between atoms: _27  and  _30
REMARK   14  A    between atoms: _30  and  _31
REMARK   15  A    between atoms: _31  and  _32
REMARK   16  A    between atoms: _34  and  _36
REMARK   17  A    between atoms: _36  and  _37
REMARK   18  A    between atoms: _36  and  _39
REMARK   19  A    between atoms: _39  and  _40
REMARK   20  A    between atoms: _43  and  _45
REMARK   21  A    between atoms: _45  and  _46
REMARK   22  A    between atoms: _45  and  _48
REMARK   23  A    between atoms: _48  and  _49
REMARK   24  A    between atoms: _49  and  _50
REMARK   25  A    between atoms: _50  and  _51
REMARK   26  A    between atoms: _51  and  _52
REMARK   27  A    between atoms: _56  and  _58
REMARK   28  A    between atoms: _58  and  _59
REMARK   29  A    between atoms: _58  and  _61
REMARK   30  A    between atoms: _61  and  _62
REMARK   31  A    between atoms: _65  and  _67
REMARK   32  A    between atoms: _67  and  _68
REMARK   33  A    between atoms: _70  and  _72
REMARK   34  A    between atoms: _72  and  _73
REMARK   35  A    between atoms: _72  and  _75
REMARK   36  A    between atoms: _75  and  _76
REMARK   37  A    between atoms: _81  and  _82
REMARK   38  A    between atoms: _85  and  _86
REMARK   39  A    between atoms: _91  and  _93
REMARK   40  A    between atoms: _93  and  _94
REMARK   41  A    between atoms: _93  and  _96
REMARK   42  A    between atoms: _96  and  _97
REMARK   43  A    between atoms: _100  and  _102
REMARK   44  A    between atoms: _102  and  _103
REMARK   45  A    between atoms: _102  and  _105
REMARK   46  A    between atoms: _105  and  _106
REMARK   47  A    between atoms: _109  and  _111
REMARK   48  A    between atoms: _111  and  _112
REMARK   49  A    between atoms: _111  and  _114
REMARK   50  A    between atoms: _114  and  _115
REMARK   51  A    between atoms: _115  and  _116
REMARK   52  A    between atoms: _116  and  _117
REMARK   53  A    between atoms: _117  and  _118
REMARK   54  A    between atoms: _122  and  _124
REMARK   55  A    between atoms: _124  and  _125
REMARK   56  A    between atoms: _124  and  _127
REMARK   57  A    between atoms: _127  and  _128
REMARK   58  A    between atoms: _131  and  _133
REMARK   59  A    between atoms: _133  and  _134
REMARK   60  A    between atoms: _133  and  _136
REMARK   61  A    between atoms: _136  and  _137
REMARK   62  A    between atoms: _142  and  _144
REMARK   63  A    between atoms: _144  and  _145
REMARK   64  A    between atoms: _144  and  _147
REMARK   65  A    between atoms: _147  and  _148
REMARK   66  A    between atoms: _151  and  _153
REMARK   67  A    between atoms: _153  and  _154
REMARK   68  A    between atoms: _153  and  _156
REMARK   69  A    between atoms: _156  and  _157
REMARK   70  A    between atoms: _160  and  _162
REMARK   71  A    between atoms: _162  and  _163
REMARK   72  A    between atoms: _162  and  _165
REMARK   73  A    between atoms: _165  and  _166
REMARK   74  A    between atoms: _166  and  _167
REMARK   75  A    between atoms: _170  and  _172
REMARK   76  A    between atoms: _172  and  _173
REMARK   77  A    between atoms: _172  and  _175
REMARK   78  A    between atoms: _175  and  _176
REMARK   79  A    between atoms: _176  and  _177
REMARK   80  A    between atoms: _179  and  _181
REMARK   81  A    between atoms: _181  and  _182
REMARK   82  A    between atoms: _181  and  _184
REMARK   83  A    between atoms: _184  and  _185
REMARK   84  A    between atoms: _187  and  _189
REMARK   85  A    between atoms: _189  and  _190
REMARK   86  A    between atoms: _189  and  _192
REMARK   87  A    between atoms: _192  and  _193
REMARK   88  A    between atoms: _198  and  _200
REMARK   89  A    between atoms: _200  and  _201
REMARK   90  A    between atoms: _204  and  _206
REMARK   91  A    between atoms: _206  and  _207
REMARK   92  A    between atoms: _206  and  _209
REMARK   93  A    between atoms: _209  and  _210
REMARK   94  A    between atoms: _213  and  _215
REMARK   95  A    between atoms: _215  and  _216
REMARK   96  A    between atoms: _215  and  _218
REMARK   97  A    between atoms: _221  and  _223
REMARK   98  A    between atoms: _223  and  _224
REMARK   99  A    between atoms: _227  and  _228
REMARK  100  A    between atoms: _233  and  _235
REMARK  101  A    between atoms: _235  and  _236
REMARK  102  A    between atoms: _235  and  _238
REMARK  103  A    between atoms: _238  and  _239
REMARK  104  A    between atoms: _241  and  _243
REMARK  105  A    between atoms: _243  and  _244
REMARK  106  A    between atoms: _243  and  _246
REMARK  107  A    between atoms: _246  and  _247
REMARK  108  A    between atoms: _250  and  _252
REMARK  109  A    between atoms: _252  and  _253
REMARK  110  A    between atoms: _252  and  _255
REMARK  111  A    between atoms: _255  and  _256
REMARK  112  A    between atoms: _256  and  _257
REMARK  113  A    between atoms: _257  and  _258
REMARK  114  A    between atoms: _267  and  _269
REMARK  115  A    between atoms: _269  and  _270
REMARK  116  A    between atoms: _269  and  _272
REMARK  117  A    between atoms: _272  and  _273
REMARK  118  A    between atoms: _276  and  _278
REMARK  119  A    between atoms: _278  and  _279
REMARK  120  A    between atoms: _278  and  _281
REMARK  121  A    between atoms: _281  and  _282
REMARK  122  A    between atoms: _285  and  _286
REMARK  123  A    between atoms: _291  and  _293
REMARK  124  A    between atoms: _293  and  _294
REMARK  125  A    between atoms: _296  and  _298
REMARK  126  A    between atoms: _298  and  _299
REMARK  127  A    between atoms: _298  and  _301
REMARK  128  A    between atoms: _304  and  _306
REMARK  129  A    between atoms: _306  and  _307
REMARK  130  A    between atoms: _309  and  _311
REMARK  131  A    between atoms: _311  and  _312
REMARK  132  A    between atoms: _315  and  _317
REMARK  133  A    between atoms: _317  and  _318
REMARK  134  A    between atoms: _317  and  _320
REMARK  135  A    between atoms: _320  and  _321
REMARK  136  A    between atoms: _321  and  _322
REMARK  137  A    between atoms: _327  and  _329
REMARK  138  A    between atoms: _329  and  _330
REMARK  139  A    between atoms: _332  and  _334
REMARK  140  A    between atoms: _334  and  _335
REMARK  141  A    between atoms: _337  and  _339
REMARK  142  A    between atoms: _339  and  _340
REMARK  143  A    between atoms: _339  and  _342
REMARK  144  A    between atoms: _342  and  _343
REMARK  145  A    between atoms: _346  and  _348
REMARK  146  A    between atoms: _348  and  _349
REMARK  147  A    between atoms: _348  and  _351
REMARK  148  A    between atoms: _354  and  _356
REMARK  149  A    between atoms: _356  and  _357
REMARK  150  A    between atoms: _359  and  _361
REMARK  151  A    between atoms: _361  and  _362
REMARK  152  A    between atoms: _361  and  _364
REMARK  153  A    between atoms: _364  and  _365
REMARK  154  A    between atoms: _365  and  _366
REMARK  155  A    between atoms: _366  and  _367
REMARK  156  A    between atoms: _376  and  _378
REMARK  157  A    between atoms: _378  and  _379
REMARK  158  A    between atoms: _378  and  _381
REMARK  159  A    between atoms: _381  and  _382
REMARK  160  A    between atoms: _384  and  _386
REMARK  161  A    between atoms: _386  and  _387
REMARK  162  A    between atoms: _386  and  _389
REMARK  163  A    between atoms: _389  and  _390
REMARK  164  A    between atoms: _393  and  _395
REMARK  165  A    between atoms: _395  and  _396
REMARK  166  A    between atoms: _395  and  _398
REMARK  167  A    between atoms: _398  and  _399
REMARK  168  A    between atoms: _404  and  _405
REMARK  169  A    between atoms: _407  and  _409
REMARK  170  A    between atoms: _409  and  _410
REMARK  171  A    between atoms: _409  and  _412
REMARK  172  A    between atoms: _412  and  _413
REMARK  173  A    between atoms: _416  and  _418
REMARK  174  A    between atoms: _418  and  _419
REMARK  175  A    between atoms: _422  and  _424
REMARK  176  A    between atoms: _424  and  _425
REMARK  177  A    between atoms: _424  and  _427
REMARK  178  A    between atoms: _427  and  _428
REMARK  179  A    between atoms: _431  and  _433
REMARK  180  A    between atoms: _433  and  _434
REMARK  181  A    between atoms: _433  and  _436
REMARK  182  A    between atoms: _436  and  _437
REMARK  183  A    between atoms: _441  and  _442
REMARK  184  A    between atoms: _447  and  _449
REMARK  185  A    between atoms: _449  and  _450
REMARK  186  A    between atoms: _449  and  _452
REMARK  187  A    between atoms: _452  and  _453
REMARK  188  A    between atoms: _453  and  _454
REMARK  189  A    between atoms: _457  and  _459
REMARK  190  A    between atoms: _459  and  _460
REMARK  191  A    between atoms: _459  and  _462
REMARK  192  A    between atoms: _462  and  _463
REMARK  193  A    between atoms: _466  and  _468
REMARK  194  A    between atoms: _468  and  _469
REMARK  195  A    between atoms: _468  and  _471
REMARK  196  A    between atoms: _471  and  _472
REMARK  197  A    between atoms: _477  and  _479
REMARK  198  A    between atoms: _479  and  _480
REMARK  199  A    between atoms: _479  and  _482
REMARK  200  A    between atoms: _482  and  _483
REMARK  201  A    between atoms: _483  and  _484
REMARK  202  A    between atoms: _484  and  _485
REMARK  203  A    between atoms: _485  and  _486
REMARK  204  A    between atoms: _490  and  _492
REMARK  205  A    between atoms: _492  and  _493
REMARK  206  A    between atoms: _492  and  _495
REMARK  207  A    between atoms: _495  and  _496
REMARK                            x       y       z     vdW  Elec       q    Type
REMARK                         _______ _______ _______ _____ _____    ______ ____
ROOT
ATOM      1  O   HOH     1      26.287  -9.959   9.079  0.00  0.00    +0.000 OA
ENDROOT
TORSDOF 0
REMARK  Name = ../refined-set-2016/3g1d/3g1d_pocket.pdb
REMARK  207 active torsions:
REMARK  status: ('A' for Active; 'I' for Inactive)
REMARK    1  A    between atoms: _1  and  _3
REMARK    2  A    between atoms: _3  and  _4
REMARK    3  A    between atoms: _3  and  _6
REMARK    4  A    between atoms: _6  and  _7
REMARK    5  A    between atoms: _10  and  _12
REMARK    6  A    between atoms: _12  and  _13
REMARK    7  A    between atoms: _12  and  _15
REMARK    8  A    between atoms: _15  and  _16
REMARK    9  A    between atoms: _19  and  _21
REMARK   10  A    between atoms: _21  and  _22
REMARK   11  A    between atoms: _25  and  _27
REMARK   12  A    between atoms: _27  and  _28
REMARK   13  A    between atoms: _27  and  _30
REMARK   14  A    between atoms: _30  and  _31
REMARK   15  A    between atoms: _31  and  _32
REMARK   16  A    between atoms: _34  and  _36
REMARK   17  A    between atoms: _36  and  _37
REMARK   18  A    between atoms: _36  and  _39
REMARK   19  A    between atoms: _39  and  _40
REMARK   20  A    between atoms: _43  and  _45
REMARK   21  A    between atoms: _45  and  _46
REMARK   22  A    between atoms: _45  and  _48
REMARK   23  A    between atoms: _48  and  _49
REMARK   24  A    between atoms: _49  and  _50
REMARK   25  A    between atoms: _50  and  _51
REMARK   26  A    between atoms: _51  and  _52
REMARK   27  A    between atoms: _56  and  _58
REMARK   28  A    between atoms: _58  and  _59
REMARK   29  A    between atoms: _58  and  _61
REMARK   30  A    between atoms: _61  and  _62
REMARK   31  A    between atoms: _65  and  _67
REMARK   32  A    between atoms: _67  and  _68
REMARK   33  A    between atoms: _70  and  _72
REMARK   34  A    between atoms: _72  and  _73
REMARK   35  A    between atoms: _72  and  _75
REMARK   36  A    between atoms: _75  and  _76
REMARK   37  A    between atoms: _81  and  _82
REMARK   38  A    between atoms: _85  and  _86
REMARK   39  A    between atoms: _91  and  _93
REMARK   40  A    between atoms: _93  and  _94
REMARK   41  A    between atoms: _93  and  _96
REMARK   42  A    between atoms: _96  and  _97
REMARK   43  A    between atoms: _100  and  _102
REMARK   44  A    between atoms: _102  and  _103
REMARK   45  A    between atoms: _102  and  _105
REMARK   46  A    between atoms: _105  and  _106
REMARK   47  A    between atoms: _109  and  _111
REMARK   48  A    between atoms: _111  and  _112
REMARK   49  A    between atoms: _111  and  _114
REMARK   50  A    between atoms: _114  and  _115
REMARK   51  A    between atoms: _115  and  _116
REMARK   52  A    between atoms: _116  and  _117
REMARK   53  A    between atoms: _117  and  _118
REMARK   54  A    between atoms: _122  and  _124
REMARK   55  A    between atoms: _124  and  _125
REMARK   56  A    between atoms: _124  and  _127
REMARK   57  A    between atoms: _127  and  _128
REMARK   58  A    between atoms: _131  and  _133
REMARK   59  A    between atoms: _133  and  _134
REMARK   60  A    between atoms: _133  and  _136
REMARK   61  A    between atoms: _136  and  _137
REMARK   62  A    between atoms: _142  and  _144
REMARK   63  A    between atoms: _144  and  _145
REMARK   64  A    between atoms: _144  and  _147
REMARK   65  A    between atoms: _147  and  _148
REMARK   66  A    between atoms: _151  and  _153
REMARK   67  A    between atoms: _153  and  _154
REMARK   68  A    between atoms: _153  and  _156
REMARK   69  A    between atoms: _156  and  _157
REMARK   70  A    between atoms: _160  and  _162
REMARK   71  A    between atoms: _162  and  _163
REMARK   72  A    between atoms: _162  and  _165
REMARK   73  A    between atoms: _165  and  _166
REMARK   74  A    between atoms: _166  and  _167
REMARK   75  A    between atoms: _170  and  _172
REMARK   76  A    between atoms: _172  and  _173
REMARK   77  A    between atoms: _172  and  _175
REMARK   78  A    between atoms: _175  and  _176
REMARK   79  A    between atoms: _176  and  _177
REMARK   80  A    between atoms: _179  and  _181
REMARK   81  A    between atoms: _181  and  _182
REMARK   82  A    between atoms: _181  and  _184
REMARK   83  A    between atoms: _184  and  _185
REMARK   84  A    between atoms: _187  and  _189
REMARK   85  A    between atoms: _189  and  _190
REMARK   86  A    between atoms: _189  and  _192
REMARK   87  A    between atoms: _192  and  _193
REMARK   88  A    between atoms: _198  and  _200
REMARK   89  A    between atoms: _200  and  _201
REMARK   90  A    between atoms: _204  and  _206
REMARK   91  A    between atoms: _206  and  _207
REMARK   92  A    between atoms: _206  and  _209
REMARK   93  A    between atoms: _209  and  _210
REMARK   94  A    between atoms: _213  and  _215
REMARK   95  A    between atoms: _215  and  _216
REMARK   96  A    between atoms: _215  and  _218
REMARK   97  A    between atoms: _221  and  _223
REMARK   98  A    between atoms: _223  and  _224
REMARK   99  A    between atoms: _227  and  _228
REMARK  100  A    between atoms: _233  and  _235
REMARK  101  A    between atoms: _235  and  _236
REMARK  102  A    between atoms: _235  and  _238
REMARK  103  A    between atoms: _238  and  _239
REMARK  104  A    between atoms: _241  and  _243
REMARK  105  A    between atoms: _243  and  _244
REMARK  106  A    between atoms: _243  and  _246
REMARK  107  A    between atoms: _246  and  _247
REMARK  108  A    between atoms: _250  and  _252
REMARK  109  A    between atoms: _252  and  _253
REMARK  110  A    between atoms: _252  and  _255
REMARK  111  A    between atoms: _255  and  _256
REMARK  112  A    between atoms: _256  and  _257
REMARK  113  A    between atoms: _257  and  _258
REMARK  114  A    between atoms: _267  and  _269
REMARK  115  A    between atoms: _269  and  _270
REMARK  116  A    between atoms: _269  and  _272
REMARK  117  A    between atoms: _272  and  _273
REMARK  118  A    between atoms: _276  and  _278
REMARK  119  A    between atoms: _278  and  _279
REMARK  120  A    between atoms: _278  and  _281
REMARK  121  A    between atoms: _281  and  _282
REMARK  122  A    between atoms: _285  and  _286
REMARK  123  A    between atoms: _291  and  _293
REMARK  124  A    between atoms: _293  and  _294
REMARK  125  A    between atoms: _296  and  _298
REMARK  126  A    between atoms: _298  and  _299
REMARK  127  A    between atoms: _298  and  _301
REMARK  128  A    between atoms: _304  and  _306
REMARK  129  A    between atoms: _306  and  _307
REMARK  130  A    between atoms: _309  and  _311
REMARK  131  A    between atoms: _311  and  _312
REMARK  132  A    between atoms: _315  and  _317
REMARK  133  A    between atoms: _317  and  _318
REMARK  134  A    between atoms: _317  and  _320
REMARK  135  A    between atoms: _320  and  _321
REMARK  136  A    between atoms: _321  and  _322
REMARK  137  A    between atoms: _327  and  _329
REMARK  138  A    between atoms: _329  and  _330
REMARK  139  A    between atoms: _332  and  _334
REMARK  140  A    between atoms: _334  and  _335
REMARK  141  A    between atoms: _337  and  _339
REMARK  142  A    between atoms: _339  and  _340
REMARK  143  A    between atoms: _339  and  _342
REMARK  144  A    between atoms: _342  and  _343
REMARK  145  A    between atoms: _346  and  _348
REMARK  146  A    between atoms: _348  and  _349
REMARK  147  A    between atoms: _348  and  _351
REMARK  148  A    between atoms: _354  and  _356
REMARK  149  A    between atoms: _356  and  _357
REMARK  150  A    between atoms: _359  and  _361
REMARK  151  A    between atoms: _361  and  _362
REMARK  152  A    between atoms: _361  and  _364
REMARK  153  A    between atoms: _364  and  _365
REMARK  154  A    between atoms: _365  and  _366
REMARK  155  A    between atoms: _366  and  _367
REMARK  156  A    between atoms: _376  and  _378
REMARK  157  A    between atoms: _378  and  _379
REMARK  158  A    between atoms: _378  and  _381
REMARK  159  A    between atoms: _381  and  _382
REMARK  160  A    between atoms: _384  and  _386
REMARK  161  A    between atoms: _386  and  _387
REMARK  162  A    between atoms: _386  and  _389
REMARK  163  A    between atoms: _389  and  _390
REMARK  164  A    between atoms: _393  and  _395
REMARK  165  A    between atoms: _395  and  _396
REMARK  166  A    between atoms: _395  and  _398
REMARK  167  A    between atoms: _398  and  _399
REMARK  168  A    between atoms: _404  and  _405
REMARK  169  A    between atoms: _407  and  _409
REMARK  170  A    between atoms: _409  and  _410
REMARK  171  A    between atoms: _409  and  _412
REMARK  172  A    between atoms: _412  and  _413
REMARK  173  A    between atoms: _416  and  _418
REMARK  174  A    between atoms: _418  and  _419
REMARK  175  A    between atoms: _422  and  _424
REMARK  176  A    between atoms: _424  and  _425
REMARK  177  A    between atoms: _424  and  _427
REMARK  178  A    between atoms: _427  and  _428
REMARK  179  A    between atoms: _431  and  _433
REMARK  180  A    between atoms: _433  and  _434
REMARK  181  A    between atoms: _433  and  _436
REMARK  182  A    between atoms: _436  and  _437
REMARK  183  A    between atoms: _441  and  _442
REMARK  184  A    between atoms: _447  and  _449
REMARK  185  A    between atoms: _449  and  _450
REMARK  186  A    between atoms: _449  and  _452
REMARK  187  A    between atoms: _452  and  _453
REMARK  188  A    between atoms: _453  and  _454
REMARK  189  A    between atoms: _457  and  _459
REMARK  190  A    between atoms: _459  and  _460
REMARK  191  A    between atoms: _459  and  _462
REMARK  192  A    between atoms: _462  and  _463
REMARK  193  A    between atoms: _466  and  _468
REMARK  194  A    between atoms: _468  and  _469
REMARK  195  A    between atoms: _468  and  _471
REMARK  196  A    between atoms: _471  and  _472
REMARK  197  A    between atoms: _477  and  _479
REMARK  198  A    between atoms: _479  and  _480
REMARK  199  A    between atoms: _479  and  _482
REMARK  200  A    between atoms: _482  and  _483
REMARK  201  A    between atoms: _483  and  _484
REMARK  202  A    between atoms: _484  and  _485
REMARK  203  A    between atoms: _485  and  _486
REMARK  204  A    between atoms: _490  and  _492
REMARK  205  A    between atoms: _492  and  _493
REMARK  206  A    between atoms: _492  and  _495
REMARK  207  A    between atoms: _495  and  _496
REMARK                            x       y       z     vdW  Elec       q    Type
REMARK                         _______ _______ _______ _____ _____    ______ ____
ROOT
ATOM      1  O   HOH     1      22.151  -7.617   6.174  0.00  0.00    +0.000 OA
ENDROOT
TORSDOF 0
REMARK  Name = ../refined-set-2016/3g1d/3g1d_pocket.pdb
REMARK  207 active torsions:
REMARK  status: ('A' for Active; 'I' for Inactive)
REMARK    1  A    between atoms: _1  and  _3
REMARK    2  A    between atoms: _3  and  _4
REMARK    3  A    between atoms: _3  and  _6
REMARK    4  A    between atoms: _6  and  _7
REMARK    5  A    between atoms: _10  and  _12
REMARK    6  A    between atoms: _12  and  _13
REMARK    7  A    between atoms: _12  and  _15
REMARK    8  A    between atoms: _15  and  _16
REMARK    9  A    between atoms: _19  and  _21
REMARK   10  A    between atoms: _21  and  _22
REMARK   11  A    between atoms: _25  and  _27
REMARK   12  A    between atoms: _27  and  _28
REMARK   13  A    between atoms: _27  and  _30
REMARK   14  A    between atoms: _30  and  _31
REMARK   15  A    between atoms: _31  and  _32
REMARK   16  A    between atoms: _34  and  _36
REMARK   17  A    between atoms: _36  and  _37
REMARK   18  A    between atoms: _36  and  _39
REMARK   19  A    between atoms: _39  and  _40
REMARK   20  A    between atoms: _43  and  _45
REMARK   21  A    between atoms: _45  and  _46
REMARK   22  A    between atoms: _45  and  _48
REMARK   23  A    between atoms: _48  and  _49
REMARK   24  A    between atoms: _49  and  _50
REMARK   25  A    between atoms: _50  and  _51
REMARK   26  A    between atoms: _51  and  _52
REMARK   27  A    between atoms: _56  and  _58
REMARK   28  A    between atoms: _58  and  _59
REMARK   29  A    between atoms: _58  and  _61
REMARK   30  A    between atoms: _61  and  _62
REMARK   31  A    between atoms: _65  and  _67
REMARK   32  A    between atoms: _67  and  _68
REMARK   33  A    between atoms: _70  and  _72
REMARK   34  A    between atoms: _72  and  _73
REMARK   35  A    between atoms: _72  and  _75
REMARK   36  A    between atoms: _75  and  _76
REMARK   37  A    between atoms: _81  and  _82
REMARK   38  A    between atoms: _85  and  _86
REMARK   39  A    between atoms: _91  and  _93
REMARK   40  A    between atoms: _93  and  _94
REMARK   41  A    between atoms: _93  and  _96
REMARK   42  A    between atoms: _96  and  _97
REMARK   43  A    between atoms: _100  and  _102
REMARK   44  A    between atoms: _102  and  _103
REMARK   45  A    between atoms: _102  and  _105
REMARK   46  A    between atoms: _105  and  _106
REMARK   47  A    between atoms: _109  and  _111
REMARK   48  A    between atoms: _111  and  _112
REMARK   49  A    between atoms: _111  and  _114
REMARK   50  A    between atoms: _114  and  _115
REMARK   51  A    between atoms: _115  and  _116
REMARK   52  A    between atoms: _116  and  _117
REMARK   53  A    between atoms: _117  and  _118
REMARK   54  A    between atoms: _122  and  _124
REMARK   55  A    between atoms: _124  and  _125
REMARK   56  A    between atoms: _124  and  _127
REMARK   57  A    between atoms: _127  and  _128
REMARK   58  A    between atoms: _131  and  _133
REMARK   59  A    between atoms: _133  and  _134
REMARK   60  A    between atoms: _133  and  _136
REMARK   61  A    between atoms: _136  and  _137
REMARK   62  A    between atoms: _142  and  _144
REMARK   63  A    between atoms: _144  and  _145
REMARK   64  A    between atoms: _144  and  _147
REMARK   65  A    between atoms: _147  and  _148
REMARK   66  A    between atoms: _151  and  _153
REMARK   67  A    between atoms: _153  and  _154
REMARK   68  A    between atoms: _153  and  _156
REMARK   69  A    between atoms: _156  and  _157
REMARK   70  A    between atoms: _160  and  _162
REMARK   71  A    between atoms: _162  and  _163
REMARK   72  A    between atoms: _162  and  _165
REMARK   73  A    between atoms: _165  and  _166
REMARK   74  A    between atoms: _166  and  _167
REMARK   75  A    between atoms: _170  and  _172
REMARK   76  A    between atoms: _172  and  _173
REMARK   77  A    between atoms: _172  and  _175
REMARK   78  A    between atoms: _175  and  _176
REMARK   79  A    between atoms: _176  and  _177
REMARK   80  A    between atoms: _179  and  _181
REMARK   81  A    between atoms: _181  and  _182
REMARK   82  A    between atoms: _181  and  _184
REMARK   83  A    between atoms: _184  and  _185
REMARK   84  A    between atoms: _187  and  _189
REMARK   85  A    between atoms: _189  and  _190
REMARK   86  A    between atoms: _189  and  _192
REMARK   87  A    between atoms: _192  and  _193
REMARK   88  A    between atoms: _198  and  _200
REMARK   89  A    between atoms: _200  and  _201
REMARK   90  A    between atoms: _204  and  _206
REMARK   91  A    between atoms: _206  and  _207
REMARK   92  A    between atoms: _206  and  _209
REMARK   93  A    between atoms: _209  and  _210
REMARK   94  A    between atoms: _213  and  _215
REMARK   95  A    between atoms: _215  and  _216
REMARK   96  A    between atoms: _215  and  _218
REMARK   97  A    between atoms: _221  and  _223
REMARK   98  A    between atoms: _223  and  _224
REMARK   99  A    between atoms: _227  and  _228
REMARK  100  A    between atoms: _233  and  _235
REMARK  101  A    between atoms: _235  and  _236
REMARK  102  A    between atoms: _235  and  _238
REMARK  103  A    between atoms: _238  and  _239
REMARK  104  A    between atoms: _241  and  _243
REMARK  105  A    between atoms: _243  and  _244
REMARK  106  A    between atoms: _243  and  _246
REMARK  107  A    between atoms: _246  and  _247
REMARK  108  A    between atoms: _250  and  _252
REMARK  109  A    between atoms: _252  and  _253
REMARK  110  A    between atoms: _252  and  _255
REMARK  111  A    between atoms: _255  and  _256
REMARK  112  A    between atoms: _256  and  _257
REMARK  113  A    between atoms: _257  and  _258
REMARK  114  A    between atoms: _267  and  _269
REMARK  115  A    between atoms: _269  and  _270
REMARK  116  A    between atoms: _269  and  _272
REMARK  117  A    between atoms: _272  and  _273
REMARK  118  A    between atoms: _276  and  _278
REMARK  119  A    between atoms: _278  and  _279
REMARK  120  A    between atoms: _278  and  _281
REMARK  121  A    between atoms: _281  and  _282
REMARK  122  A    between atoms: _285  and  _286
REMARK  123  A    between atoms: _291  and  _293
REMARK  124  A    between atoms: _293  and  _294
REMARK  125  A    between atoms: _296  and  _298
REMARK  126  A    between atoms: _298  and  _299
REMARK  127  A    between atoms: _298  and  _301
REMARK  128  A    between atoms: _304  and  _306
REMARK  129  A    between atoms: _306  and  _307
REMARK  130  A    between atoms: _309  and  _311
REMARK  131  A    between atoms: _311  and  _312
REMARK  132  A    between atoms: _315  and  _317
REMARK  133  A    between atoms: _317  and  _318
REMARK  134  A    between atoms: _317  and  _320
REMARK  135  A    between atoms: _320  and  _321
REMARK  136  A    between atoms: _321  and  _322
REMARK  137  A    between atoms: _327  and  _329
REMARK  138  A    between atoms: _329  and  _330
REMARK  139  A    between atoms: _332  and  _334
REMARK  140  A    between atoms: _334  and  _335
REMARK  141  A    between atoms: _337  and  _339
REMARK  142  A    between atoms: _339  and  _340
REMARK  143  A    between atoms: _339  and  _342
REMARK  144  A    between atoms: _342  and  _343
REMARK  145  A    between atoms: _346  and  _348
REMARK  146  A    between atoms: _348  and  _349
REMARK  147  A    between atoms: _348  and  _351
REMARK  148  A    between atoms: _354  and  _356
REMARK  149  A    between atoms: _356  and  _357
REMARK  150  A    between atoms: _359  and  _361
REMARK  151  A    between atoms: _361  and  _362
REMARK  152  A    between atoms: _361  and  _364
REMARK  153  A    between atoms: _364  and  _365
REMARK  154  A    between atoms: _365  and  _366
REMARK  155  A    between atoms: _366  and  _367
REMARK  156  A    between atoms: _376  and  _378
REMARK  157  A    between atoms: _378  and  _379
REMARK  158  A    between atoms: _378  and  _381
REMARK  159  A    between atoms: _381  and  _382
REMARK  160  A    between atoms: _384  and  _386
REMARK  161  A    between atoms: _386  and  _387
REMARK  162  A    between atoms: _386  and  _389
REMARK  163  A    between atoms: _389  and  _390
REMARK  164  A    between atoms: _393  and  _395
REMARK  165  A    between atoms: _395  and  _396
REMARK  166  A    between atoms: _395  and  _398
REMARK  167  A    between atoms: _398  and  _399
REMARK  168  A    between atoms: _404  and  _405
REMARK  169  A    between atoms: _407  and  _409
REMARK  170  A    between atoms: _409  and  _410
REMARK  171  A    between atoms: _409  and  _412
REMARK  172  A    between atoms: _412  and  _413
REMARK  173  A    between atoms: _416  and  _418
REMARK  174  A    between atoms: _418  and  _419
REMARK  175  A    between atoms: _422  and  _424
REMARK  176  A    between atoms: _424  and  _425
REMARK  177  A    between atoms: _424  and  _427
REMARK  178  A    between atoms: _427  and  _428
REMARK  179  A    between atoms: _431  and  _433
REMARK  180  A    between atoms: _433  and  _434
REMARK  181  A    between atoms: _433  and  _436
REMARK  182  A    between atoms: _436  and  _437
REMARK  183  A    between atoms: _441  and  _442
REMARK  184  A    between atoms: _447  and  _449
REMARK  185  A    between atoms: _449  and  _450
REMARK  186  A    between atoms: _449  and  _452
REMARK  187  A    between atoms: _452  and  _453
REMARK  188  A    between atoms: _453  and  _454
REMARK  189  A    between atoms: _457  and  _459
REMARK  190  A    between atoms: _459  and  _460
REMARK  191  A    between atoms: _459  and  _462
REMARK  192  A    between atoms: _462  and  _463
REMARK  193  A    between atoms: _466  and  _468
REMARK  194  A    between atoms: _468  and  _469
REMARK  195  A    between atoms: _468  and  _471
REMARK  196  A    between atoms: _471  and  _472
REMARK  197  A    between atoms: _477  and  _479
REMARK  198  A    between atoms: _479  and  _480
REMARK  199  A    between atoms: _479  and  _482
REMARK  200  A    between atoms: _482  and  _483
REMARK  201  A    between atoms: _483  and  _484
REMARK  202  A    between atoms: _484  and  _485
REMARK  203  A    between atoms: _485  and  _486
REMARK  204  A    between atoms: _490  and  _492
REMARK  205  A    between atoms: _492  and  _493
REMARK  206  A    between atoms: _492  and  _495
REMARK  207  A    between atoms: _495  and  _496
REMARK                            x       y       z     vdW  Elec       q    Type
REMARK                         _______ _______ _______ _____ _____    ______ ____
ROOT
ATOM      1  O   HOH     1      11.038  -0.375   1.070  0.00  0.00    +0.000 OA
ENDROOT
TORSDOF 0
REMARK  Name = ../refined-set-2016/3g1d/3g1d_pocket.pdb
REMARK  207 active torsions:
REMARK  status: ('A' for Active; 'I' for Inactive)
REMARK    1  A    between atoms: _1  and  _3
REMARK    2  A    between atoms: _3  and  _4
REMARK    3  A    between atoms: _3  and  _6
REMARK    4  A    between atoms: _6  and  _7
REMARK    5  A    between atoms: _10  and  _12
REMARK    6  A    between atoms: _12  and  _13
REMARK    7  A    between atoms: _12  and  _15
REMARK    8  A    between atoms: _15  and  _16
REMARK    9  A    between atoms: _19  and  _21
REMARK   10  A    between atoms: _21  and  _22
REMARK   11  A    between atoms: _25  and  _27
REMARK   12  A    between atoms: _27  and  _28
REMARK   13  A    between atoms: _27  and  _30
REMARK   14  A    between atoms: _30  and  _31
REMARK   15  A    between atoms: _31  and  _32
REMARK   16  A    between atoms: _34  and  _36
REMARK   17  A    between atoms: _36  and  _37
REMARK   18  A    between atoms: _36  and  _39
REMARK   19  A    between atoms: _39  and  _40
REMARK   20  A    between atoms: _43  and  _45
REMARK   21  A    between atoms: _45  and  _46
REMARK   22  A    between atoms: _45  and  _48
REMARK   23  A    between atoms: _48  and  _49
REMARK   24  A    between atoms: _49  and  _50
REMARK   25  A    between atoms: _50  and  _51
REMARK   26  A    between atoms: _51  and  _52
REMARK   27  A    between atoms: _56  and  _58
REMARK   28  A    between atoms: _58  and  _59
REMARK   29  A    between atoms: _58  and  _61
REMARK   30  A    between atoms: _61  and  _62
REMARK   31  A    between atoms: _65  and  _67
REMARK   32  A    between atoms: _67  and  _68
REMARK   33  A    between atoms: _70  and  _72
REMARK   34  A    between atoms: _72  and  _73
REMARK   35  A    between atoms: _72  and  _75
REMARK   36  A    between atoms: _75  and  _76
REMARK   37  A    between atoms: _81  and  _82
REMARK   38  A    between atoms: _85  and  _86
REMARK   39  A    between atoms: _91  and  _93
REMARK   40  A    between atoms: _93  and  _94
REMARK   41  A    between atoms: _93  and  _96
REMARK   42  A    between atoms: _96  and  _97
REMARK   43  A    between atoms: _100  and  _102
REMARK   44  A    between atoms: _102  and  _103
REMARK   45  A    between atoms: _102  and  _105
REMARK   46  A    between atoms: _105  and  _106
REMARK   47  A    between atoms: _109  and  _111
REMARK   48  A    between atoms: _111  and  _112
REMARK   49  A    between atoms: _111  and  _114
REMARK   50  A    between atoms: _114  and  _115
REMARK   51  A    between atoms: _115  and  _116
REMARK   52  A    between atoms: _116  and  _117
REMARK   53  A    between atoms: _117  and  _118
REMARK   54  A    between atoms: _122  and  _124
REMARK   55  A    between atoms: _124  and  _125
REMARK   56  A    between atoms: _124  and  _127
REMARK   57  A    between atoms: _127  and  _128
REMARK   58  A    between atoms: _131  and  _133
REMARK   59  A    between atoms: _133  and  _134
REMARK   60  A    between atoms: _133  and  _136
REMARK   61  A    between atoms: _136  and  _137
REMARK   62  A    between atoms: _142  and  _144
REMARK   63  A    between atoms: _144  and  _145
REMARK   64  A    between atoms: _144  and  _147
REMARK   65  A    between atoms: _147  and  _148
REMARK   66  A    between atoms: _151  and  _153
REMARK   67  A    between atoms: _153  and  _154
REMARK   68  A    between atoms: _153  and  _156
REMARK   69  A    between atoms: _156  and  _157
REMARK   70  A    between atoms: _160  and  _162
REMARK   71  A    between atoms: _162  and  _163
REMARK   72  A    between atoms: _162  and  _165
REMARK   73  A    between atoms: _165  and  _166
REMARK   74  A    between atoms: _166  and  _167
REMARK   75  A    between atoms: _170  and  _172
REMARK   76  A    between atoms: _172  and  _173
REMARK   77  A    between atoms: _172  and  _175
REMARK   78  A    between atoms: _175  and  _176
REMARK   79  A    between atoms: _176  and  _177
REMARK   80  A    between atoms: _179  and  _181
REMARK   81  A    between atoms: _181  and  _182
REMARK   82  A    between atoms: _181  and  _184
REMARK   83  A    between atoms: _184  and  _185
REMARK   84  A    between atoms: _187  and  _189
REMARK   85  A    between atoms: _189  and  _190
REMARK   86  A    between atoms: _189  and  _192
REMARK   87  A    between atoms: _192  and  _193
REMARK   88  A    between atoms: _198  and  _200
REMARK   89  A    between atoms: _200  and  _201
REMARK   90  A    between atoms: _204  and  _206
REMARK   91  A    between atoms: _206  and  _207
REMARK   92  A    between atoms: _206  and  _209
REMARK   93  A    between atoms: _209  and  _210
REMARK   94  A    between atoms: _213  and  _215
REMARK   95  A    between atoms: _215  and  _216
REMARK   96  A    between atoms: _215  and  _218
REMARK   97  A    between atoms: _221  and  _223
REMARK   98  A    between atoms: _223  and  _224
REMARK   99  A    between atoms: _227  and  _228
REMARK  100  A    between atoms: _233  and  _235
REMARK  101  A    between atoms: _235  and  _236
REMARK  102  A    between atoms: _235  and  _238
REMARK  103  A    between atoms: _238  and  _239
REMARK  104  A    between atoms: _241  and  _243
REMARK  105  A    between atoms: _243  and  _244
REMARK  106  A    between atoms: _243  and  _246
REMARK  107  A    between atoms: _246  and  _247
REMARK  108  A    between atoms: _250  and  _252
REMARK  109  A    between atoms: _252  and  _253
REMARK  110  A    between atoms: _252  and  _255
REMARK  111  A    between atoms: _255  and  _256
REMARK  112  A    between atoms: _256  and  _257
REMARK  113  A    between atoms: _257  and  _258
REMARK  114  A    between atoms: _267  and  _269
REMARK  115  A    between atoms: _269  and  _270
REMARK  116  A    between atoms: _269  and  _272
REMARK  117  A    between atoms: _272  and  _273
REMARK  118  A    between atoms: _276  and  _278
REMARK  119  A    between atoms: _278  and  _279
REMARK  120  A    between atoms: _278  and  _281
REMARK  121  A    between atoms: _281  and  _282
REMARK  122  A    between atoms: _285  and  _286
REMARK  123  A    between atoms: _291  and  _293
REMARK  124  A    between atoms: _293  and  _294
REMARK  125  A    between atoms: _296  and  _298
REMARK  126  A    between atoms: _298  and  _299
REMARK  127  A    between atoms: _298  and  _301
REMARK  128  A    between atoms: _304  and  _306
REMARK  129  A    between atoms: _306  and  _307
REMARK  130  A    between atoms: _309  and  _311
REMARK  131  A    between atoms: _311  and  _312
REMARK  132  A    between atoms: _315  and  _317
REMARK  133  A    between atoms: _317  and  _318
REMARK  134  A    between atoms: _317  and  _320
REMARK  135  A    between atoms: _320  and  _321
REMARK  136  A    between atoms: _321  and  _322
REMARK  137  A    between atoms: _327  and  _329
REMARK  138  A    between atoms: _329  and  _330
REMARK  139  A    between atoms: _332  and  _334
REMARK  140  A    between atoms: _334  and  _335
REMARK  141  A    between atoms: _337  and  _339
REMARK  142  A    between atoms: _339  and  _340
REMARK  143  A    between atoms: _339  and  _342
REMARK  144  A    between atoms: _342  and  _343
REMARK  145  A    between atoms: _346  and  _348
REMARK  146  A    between atoms: _348  and  _349
REMARK  147  A    between atoms: _348  and  _351
REMARK  148  A    between atoms: _354  and  _356
REMARK  149  A    between atoms: _356  and  _357
REMARK  150  A    between atoms: _359  and  _361
REMARK  151  A    between atoms: _361  and  _362
REMARK  152  A    between atoms: _361  and  _364
REMARK  153  A    between atoms: _364  and  _365
REMARK  154  A    between atoms: _365  and  _366
REMARK  155  A    between atoms: _366  and  _367
REMARK  156  A    between atoms: _376  and  _378
REMARK  157  A    between atoms: _378  and  _379
REMARK  158  A    between atoms: _378  and  _381
REMARK  159  A    between atoms: _381  and  _382
REMARK  160  A    between atoms: _384  and  _386
REMARK  161  A    between atoms: _386  and  _387
REMARK  162  A    between atoms: _386  and  _389
REMARK  163  A    between atoms: _389  and  _390
REMARK  164  A    between atoms: _393  and  _395
REMARK  165  A    between atoms: _395  and  _396
REMARK  166  A    between atoms: _395  and  _398
REMARK  167  A    between atoms: _398  and  _399
REMARK  168  A    between atoms: _404  and  _405
REMARK  169  A    between atoms: _407  and  _409
REMARK  170  A    between atoms: _409  and  _410
REMARK  171  A    between atoms: _409  and  _412
REMARK  172  A    between atoms: _412  and  _413
REMARK  173  A    between atoms: _416  and  _418
REMARK  174  A    between atoms: _418  and  _419
REMARK  175  A    between atoms: _422  and  _424
REMARK  176  A    between atoms: _424  and  _425
REMARK  177  A    between atoms: _424  and  _427
REMARK  178  A    between atoms: _427  and  _428
REMARK  179  A    between atoms: _431  and  _433
REMARK  180  A    between atoms: _433  and  _434
REMARK  181  A    between atoms: _433  and  _436
REMARK  182  A    between atoms: _436  and  _437
REMARK  183  A    between atoms: _441  and  _442
REMARK  184  A    between atoms: _447  and  _449
REMARK  185  A    between atoms: _449  and  _450
REMARK  186  A    between atoms: _449  and  _452
REMARK  187  A    between atoms: _452  and  _453
REMARK  188  A    between atoms: _453  and  _454
REMARK  189  A    between atoms: _457  and  _459
REMARK  190  A    between atoms: _459  and  _460
REMARK  191  A    between atoms: _459  and  _462
REMARK  192  A    between atoms: _462  and  _463
REMARK  193  A    between atoms: _466  and  _468
REMARK  194  A    between atoms: _468  and  _469
REMARK  195  A    between atoms: _468  and  _471
REMARK  196  A    between atoms: _471  and  _472
REMARK  197  A    between atoms: _477  and  _479
REMARK  198  A    between atoms: _479  and  _480
REMARK  199  A    between atoms: _479  and  _482
REMARK  200  A    between atoms: _482  and  _483
REMARK  201  A    between atoms: _483  and  _484
REMARK  202  A    between atoms: _484  and  _485
REMARK  203  A    between atoms: _485  and  _486
REMARK  204  A    between atoms: _490  and  _492
REMARK  205  A    between atoms: _492  and  _493
REMARK  206  A    between atoms: _492  and  _495
REMARK  207  A    between atoms: _495  and  _496
REMARK                            x       y       z     vdW  Elec       q    Type
REMARK                         _______ _______ _______ _____ _____    ______ ____
ROOT
ATOM      1  O   HOH     1      24.035  -9.612   5.832  0.00  0.00    +0.000 OA
ENDROOT
TORSDOF 0
REMARK  Name = ../refined-set-2016/3g1d/3g1d_pocket.pdb
REMARK  207 active torsions:
REMARK  status: ('A' for Active; 'I' for Inactive)
REMARK    1  A    between atoms: _1  and  _3
REMARK    2  A    between atoms: _3  and  _4
REMARK    3  A    between atoms: _3  and  _6
REMARK    4  A    between atoms: _6  and  _7
REMARK    5  A    between atoms: _10  and  _12
REMARK    6  A    between atoms: _12  and  _13
REMARK    7  A    between atoms: _12  and  _15
REMARK    8  A    between atoms: _15  and  _16
REMARK    9  A    between atoms: _19  and  _21
REMARK   10  A    between atoms: _21  and  _22
REMARK   11  A    between atoms: _25  and  _27
REMARK   12  A    between atoms: _27  and  _28
REMARK   13  A    between atoms: _27  and  _30
REMARK   14  A    between atoms: _30  and  _31
REMARK   15  A    between atoms: _31  and  _32
REMARK   16  A    between atoms: _34  and  _36
REMARK   17  A    between atoms: _36  and  _37
REMARK   18  A    between atoms: _36  and  _39
REMARK   19  A    between atoms: _39  and  _40
REMARK   20  A    between atoms: _43  and  _45
REMARK   21  A    between atoms: _45  and  _46
REMARK   22  A    between atoms: _45  and  _48
REMARK   23  A    between atoms: _48  and  _49
REMARK   24  A    between atoms: _49  and  _50
REMARK   25  A    between atoms: _50  and  _51
REMARK   26  A    between atoms: _51  and  _52
REMARK   27  A    between atoms: _56  and  _58
REMARK   28  A    between atoms: _58  and  _59
REMARK   29  A    between atoms: _58  and  _61
REMARK   30  A    between atoms: _61  and  _62
REMARK   31  A    between atoms: _65  and  _67
REMARK   32  A    between atoms: _67  and  _68
REMARK   33  A    between atoms: _70  and  _72
REMARK   34  A    between atoms: _72  and  _73
REMARK   35  A    between atoms: _72  and  _75
REMARK   36  A    between atoms: _75  and  _76
REMARK   37  A    between atoms: _81  and  _82
REMARK   38  A    between atoms: _85  and  _86
REMARK   39  A    between atoms: _91  and  _93
REMARK   40  A    between atoms: _93  and  _94
REMARK   41  A    between atoms: _93  and  _96
REMARK   42  A    between atoms: _96  and  _97
REMARK   43  A    between atoms: _100  and  _102
REMARK   44  A    between atoms: _102  and  _103
REMARK   45  A    between atoms: _102  and  _105
REMARK   46  A    between atoms: _105  and  _106
REMARK   47  A    between atoms: _109  and  _111
REMARK   48  A    between atoms: _111  and  _112
REMARK   49  A    between atoms: _111  and  _114
REMARK   50  A    between atoms: _114  and  _115
REMARK   51  A    between atoms: _115  and  _116
REMARK   52  A    between atoms: _116  and  _117
REMARK   53  A    between atoms: _117  and  _118
REMARK   54  A    between atoms: _122  and  _124
REMARK   55  A    between atoms: _124  and  _125
REMARK   56  A    between atoms: _124  and  _127
REMARK   57  A    between atoms: _127  and  _128
REMARK   58  A    between atoms: _131  and  _133
REMARK   59  A    between atoms: _133  and  _134
REMARK   60  A    between atoms: _133  and  _136
REMARK   61  A    between atoms: _136  and  _137
REMARK   62  A    between atoms: _142  and  _144
REMARK   63  A    between atoms: _144  and  _145
REMARK   64  A    between atoms: _144  and  _147
REMARK   65  A    between atoms: _147  and  _148
REMARK   66  A    between atoms: _151  and  _153
REMARK   67  A    between atoms: _153  and  _154
REMARK   68  A    between atoms: _153  and  _156
REMARK   69  A    between atoms: _156  and  _157
REMARK   70  A    between atoms: _160  and  _162
REMARK   71  A    between atoms: _162  and  _163
REMARK   72  A    between atoms: _162  and  _165
REMARK   73  A    between atoms: _165  and  _166
REMARK   74  A    between atoms: _166  and  _167
REMARK   75  A    between atoms: _170  and  _172
REMARK   76  A    between atoms: _172  and  _173
REMARK   77  A    between atoms: _172  and  _175
REMARK   78  A    between atoms: _175  and  _176
REMARK   79  A    between atoms: _176  and  _177
REMARK   80  A    between atoms: _179  and  _181
REMARK   81  A    between atoms: _181  and  _182
REMARK   82  A    between atoms: _181  and  _184
REMARK   83  A    between atoms: _184  and  _185
REMARK   84  A    between atoms: _187  and  _189
REMARK   85  A    between atoms: _189  and  _190
REMARK   86  A    between atoms: _189  and  _192
REMARK   87  A    between atoms: _192  and  _193
REMARK   88  A    between atoms: _198  and  _200
REMARK   89  A    between atoms: _200  and  _201
REMARK   90  A    between atoms: _204  and  _206
REMARK   91  A    between atoms: _206  and  _207
REMARK   92  A    between atoms: _206  and  _209
REMARK   93  A    between atoms: _209  and  _210
REMARK   94  A    between atoms: _213  and  _215
REMARK   95  A    between atoms: _215  and  _216
REMARK   96  A    between atoms: _215  and  _218
REMARK   97  A    between atoms: _221  and  _223
REMARK   98  A    between atoms: _223  and  _224
REMARK   99  A    between atoms: _227  and  _228
REMARK  100  A    between atoms: _233  and  _235
REMARK  101  A    between atoms: _235  and  _236
REMARK  102  A    between atoms: _235  and  _238
REMARK  103  A    between atoms: _238  and  _239
REMARK  104  A    between atoms: _241  and  _243
REMARK  105  A    between atoms: _243  and  _244
REMARK  106  A    between atoms: _243  and  _246
REMARK  107  A    between atoms: _246  and  _247
REMARK  108  A    between atoms: _250  and  _252
REMARK  109  A    between atoms: _252  and  _253
REMARK  110  A    between atoms: _252  and  _255
REMARK  111  A    between atoms: _255  and  _256
REMARK  112  A    between atoms: _256  and  _257
REMARK  113  A    between atoms: _257  and  _258
REMARK  114  A    between atoms: _267  and  _269
REMARK  115  A    between atoms: _269  and  _270
REMARK  116  A    between atoms: _269  and  _272
REMARK  117  A    between atoms: _272  and  _273
REMARK  118  A    between atoms: _276  and  _278
REMARK  119  A    between atoms: _278  and  _279
REMARK  120  A    between atoms: _278  and  _281
REMARK  121  A    between atoms: _281  and  _282
REMARK  122  A    between atoms: _285  and  _286
REMARK  123  A    between atoms: _291  and  _293
REMARK  124  A    between atoms: _293  and  _294
REMARK  125  A    between atoms: _296  and  _298
REMARK  126  A    between atoms: _298  and  _299
REMARK  127  A    between atoms: _298  and  _301
REMARK  128  A    between atoms: _304  and  _306
REMARK  129  A    between atoms: _306  and  _307
REMARK  130  A    between atoms: _309  and  _311
REMARK  131  A    between atoms: _311  and  _312
REMARK  132  A    between atoms: _315  and  _317
REMARK  133  A    between atoms: _317  and  _318
REMARK  134  A    between atoms: _317  and  _320
REMARK  135  A    between atoms: _320  and  _321
REMARK  136  A    between atoms: _321  and  _322
REMARK  137  A    between atoms: _327  and  _329
REMARK  138  A    between atoms: _329  and  _330
REMARK  139  A    between atoms: _332  and  _334
REMARK  140  A    between atoms: _334  and  _335
REMARK  141  A    between atoms: _337  and  _339
REMARK  142  A    between atoms: _339  and  _340
REMARK  143  A    between atoms: _339  and  _342
REMARK  144  A    between atoms: _342  and  _343
REMARK  145  A    between atoms: _346  and  _348
REMARK  146  A    between atoms: _348  and  _349
REMARK  147  A    between atoms: _348  and  _351
REMARK  148  A    between atoms: _354  and  _356
REMARK  149  A    between atoms: _356  and  _357
REMARK  150  A    between atoms: _359  and  _361
REMARK  151  A    between atoms: _361  and  _362
REMARK  152  A    between atoms: _361  and  _364
REMARK  153  A    between atoms: _364  and  _365
REMARK  154  A    between atoms: _365  and  _366
REMARK  155  A    between atoms: _366  and  _367
REMARK  156  A    between atoms: _376  and  _378
REMARK  157  A    between atoms: _378  and  _379
REMARK  158  A    between atoms: _378  and  _381
REMARK  159  A    between atoms: _381  and  _382
REMARK  160  A    between atoms: _384  and  _386
REMARK  161  A    between atoms: _386  and  _387
REMARK  162  A    between atoms: _386  and  _389
REMARK  163  A    between atoms: _389  and  _390
REMARK  164  A    between atoms: _393  and  _395
REMARK  165  A    between atoms: _395  and  _396
REMARK  166  A    between atoms: _395  and  _398
REMARK  167  A    between atoms: _398  and  _399
REMARK  168  A    between atoms: _404  and  _405
REMARK  169  A    between atoms: _407  and  _409
REMARK  170  A    between atoms: _409  and  _410
REMARK  171  A    between atoms: _409  and  _412
REMARK  172  A    between atoms: _412  and  _413
REMARK  173  A    between atoms: _416  and  _418
REMARK  174  A    between atoms: _418  and  _419
REMARK  175  A    between atoms: _422  and  _424
REMARK  176  A    between atoms: _424  and  _425
REMARK  177  A    between atoms: _424  and  _427
REMARK  178  A    between atoms: _427  and  _428
REMARK  179  A    between atoms: _431  and  _433
REMARK  180  A    between atoms: _433  and  _434
REMARK  181  A    between atoms: _433  and  _436
REMARK  182  A    between atoms: _436  and  _437
REMARK  183  A    between atoms: _441  and  _442
REMARK  184  A    between atoms: _447  and  _449
REMARK  185  A    between atoms: _449  and  _450
REMARK  186  A    between atoms: _449  and  _452
REMARK  187  A    between atoms: _452  and  _453
REMARK  188  A    between atoms: _453  and  _454
REMARK  189  A    between atoms: _457  and  _459
REMARK  190  A    between atoms: _459  and  _460
REMARK  191  A    between atoms: _459  and  _462
REMARK  192  A    between atoms: _462  and  _463
REMARK  193  A    between atoms: _466  and  _468
REMARK  194  A    between atoms: _468  and  _469
REMARK  195  A    between atoms: _468  and  _471
REMARK  196  A    between atoms: _471  and  _472
REMARK  197  A    between atoms: _477  and  _479
REMARK  198  A    between atoms: _479  and  _480
REMARK  199  A    between atoms: _479  and  _482
REMARK  200  A    between atoms: _482  and  _483
REMARK  201  A    between atoms: _483  and  _484
REMARK  202  A    between atoms: _484  and  _485
REMARK  203  A    between atoms: _485  and  _486
REMARK  204  A    between atoms: _490  and  _492
REMARK  205  A    between atoms: _492  and  _493
REMARK  206  A    between atoms: _492  and  _495
REMARK  207  A    between atoms: _495  and  _496
REMARK                            x       y       z     vdW  Elec       q    Type
REMARK                         _______ _______ _______ _____ _____    ______ ____
ROOT
ATOM      1  O   HOH     1      12.057  -1.884  15.489  0.00  0.00    +0.000 OA
ENDROOT
TORSDOF 0
REMARK  Name = ../refined-set-2016/3g1d/3g1d_pocket.pdb
REMARK  207 active torsions:
REMARK  status: ('A' for Active; 'I' for Inactive)
REMARK    1  A    between atoms: _1  and  _3
REMARK    2  A    between atoms: _3  and  _4
REMARK    3  A    between atoms: _3  and  _6
REMARK    4  A    between atoms: _6  and  _7
REMARK    5  A    between atoms: _10  and  _12
REMARK    6  A    between atoms: _12  and  _13
REMARK    7  A    between atoms: _12  and  _15
REMARK    8  A    between atoms: _15  and  _16
REMARK    9  A    between atoms: _19  and  _21
REMARK   10  A    between atoms: _21  and  _22
REMARK   11  A    between atoms: _25  and  _27
REMARK   12  A    between atoms: _27  and  _28
REMARK   13  A    between atoms: _27  and  _30
REMARK   14  A    between atoms: _30  and  _31
REMARK   15  A    between atoms: _31  and  _32
REMARK   16  A    between atoms: _34  and  _36
REMARK   17  A    between atoms: _36  and  _37
REMARK   18  A    between atoms: _36  and  _39
REMARK   19  A    between atoms: _39  and  _40
REMARK   20  A    between atoms: _43  and  _45
REMARK   21  A    between atoms: _45  and  _46
REMARK   22  A    between atoms: _45  and  _48
REMARK   23  A    between atoms: _48  and  _49
REMARK   24  A    between atoms: _49  and  _50
REMARK   25  A    between atoms: _50  and  _51
REMARK   26  A    between atoms: _51  and  _52
REMARK   27  A    between atoms: _56  and  _58
REMARK   28  A    between atoms: _58  and  _59
REMARK   29  A    between atoms: _58  and  _61
REMARK   30  A    between atoms: _61  and  _62
REMARK   31  A    between atoms: _65  and  _67
REMARK   32  A    between atoms: _67  and  _68
REMARK   33  A    between atoms: _70  and  _72
REMARK   34  A    between atoms: _72  and  _73
REMARK   35  A    between atoms: _72  and  _75
REMARK   36  A    between atoms: _75  and  _76
REMARK   37  A    between atoms: _81  and  _82
REMARK   38  A    between atoms: _85  and  _86
REMARK   39  A    between atoms: _91  and  _93
REMARK   40  A    between atoms: _93  and  _94
REMARK   41  A    between atoms: _93  and  _96
REMARK   42  A    between atoms: _96  and  _97
REMARK   43  A    between atoms: _100  and  _102
REMARK   44  A    between atoms: _102  and  _103
REMARK   45  A    between atoms: _102  and  _105
REMARK   46  A    between atoms: _105  and  _106
REMARK   47  A    between atoms: _109  and  _111
REMARK   48  A    between atoms: _111  and  _112
REMARK   49  A    between atoms: _111  and  _114
REMARK   50  A    between atoms: _114  and  _115
REMARK   51  A    between atoms: _115  and  _116
REMARK   52  A    between atoms: _116  and  _117
REMARK   53  A    between atoms: _117  and  _118
REMARK   54  A    between atoms: _122  and  _124
REMARK   55  A    between atoms: _124  and  _125
REMARK   56  A    between atoms: _124  and  _127
REMARK   57  A    between atoms: _127  and  _128
REMARK   58  A    between atoms: _131  and  _133
REMARK   59  A    between atoms: _133  and  _134
REMARK   60  A    between atoms: _133  and  _136
REMARK   61  A    between atoms: _136  and  _137
REMARK   62  A    between atoms: _142  and  _144
REMARK   63  A    between atoms: _144  and  _145
REMARK   64  A    between atoms: _144  and  _147
REMARK   65  A    between atoms: _147  and  _148
REMARK   66  A    between atoms: _151  and  _153
REMARK   67  A    between atoms: _153  and  _154
REMARK   68  A    between atoms: _153  and  _156
REMARK   69  A    between atoms: _156  and  _157
REMARK   70  A    between atoms: _160  and  _162
REMARK   71  A    between atoms: _162  and  _163
REMARK   72  A    between atoms: _162  and  _165
REMARK   73  A    between atoms: _165  and  _166
REMARK   74  A    between atoms: _166  and  _167
REMARK   75  A    between atoms: _170  and  _172
REMARK   76  A    between atoms: _172  and  _173
REMARK   77  A    between atoms: _172  and  _175
REMARK   78  A    between atoms: _175  and  _176
REMARK   79  A    between atoms: _176  and  _177
REMARK   80  A    between atoms: _179  and  _181
REMARK   81  A    between atoms: _181  and  _182
REMARK   82  A    between atoms: _181  and  _184
REMARK   83  A    between atoms: _184  and  _185
REMARK   84  A    between atoms: _187  and  _189
REMARK   85  A    between atoms: _189  and  _190
REMARK   86  A    between atoms: _189  and  _192
REMARK   87  A    between atoms: _192  and  _193
REMARK   88  A    between atoms: _198  and  _200
REMARK   89  A    between atoms: _200  and  _201
REMARK   90  A    between atoms: _204  and  _206
REMARK   91  A    between atoms: _206  and  _207
REMARK   92  A    between atoms: _206  and  _209
REMARK   93  A    between atoms: _209  and  _210
REMARK   94  A    between atoms: _213  and  _215
REMARK   95  A    between atoms: _215  and  _216
REMARK   96  A    between atoms: _215  and  _218
REMARK   97  A    between atoms: _221  and  _223
REMARK   98  A    between atoms: _223  and  _224
REMARK   99  A    between atoms: _227  and  _228
REMARK  100  A    between atoms: _233  and  _235
REMARK  101  A    between atoms: _235  and  _236
REMARK  102  A    between atoms: _235  and  _238
REMARK  103  A    between atoms: _238  and  _239
REMARK  104  A    between atoms: _241  and  _243
REMARK  105  A    between atoms: _243  and  _244
REMARK  106  A    between atoms: _243  and  _246
REMARK  107  A    between atoms: _246  and  _247
REMARK  108  A    between atoms: _250  and  _252
REMARK  109  A    between atoms: _252  and  _253
REMARK  110  A    between atoms: _252  and  _255
REMARK  111  A    between atoms: _255  and  _256
REMARK  112  A    between atoms: _256  and  _257
REMARK  113  A    between atoms: _257  and  _258
REMARK  114  A    between atoms: _267  and  _269
REMARK  115  A    between atoms: _269  and  _270
REMARK  116  A    between atoms: _269  and  _272
REMARK  117  A    between atoms: _272  and  _273
REMARK  118  A    between atoms: _276  and  _278
REMARK  119  A    between atoms: _278  and  _279
REMARK  120  A    between atoms: _278  and  _281
REMARK  121  A    between atoms: _281  and  _282
REMARK  122  A    between atoms: _285  and  _286
REMARK  123  A    between atoms: _291  and  _293
REMARK  124  A    between atoms: _293  and  _294
REMARK  125  A    between atoms: _296  and  _298
REMARK  126  A    between atoms: _298  and  _299
REMARK  127  A    between atoms: _298  and  _301
REMARK  128  A    between atoms: _304  and  _306
REMARK  129  A    between atoms: _306  and  _307
REMARK  130  A    between atoms: _309  and  _311
REMARK  131  A    between atoms: _311  and  _312
REMARK  132  A    between atoms: _315  and  _317
REMARK  133  A    between atoms: _317  and  _318
REMARK  134  A    between atoms: _317  and  _320
REMARK  135  A    between atoms: _320  and  _321
REMARK  136  A    between atoms: _321  and  _322
REMARK  137  A    between atoms: _327  and  _329
REMARK  138  A    between atoms: _329  and  _330
REMARK  139  A    between atoms: _332  and  _334
REMARK  140  A    between atoms: _334  and  _335
REMARK  141  A    between atoms: _337  and  _339
REMARK  142  A    between atoms: _339  and  _340
REMARK  143  A    between atoms: _339  and  _342
REMARK  144  A    between atoms: _342  and  _343
REMARK  145  A    between atoms: _346  and  _348
REMARK  146  A    between atoms: _348  and  _349
REMARK  147  A    between atoms: _348  and  _351
REMARK  148  A    between atoms: _354  and  _356
REMARK  149  A    between atoms: _356  and  _357
REMARK  150  A    between atoms: _359  and  _361
REMARK  151  A    between atoms: _361  and  _362
REMARK  152  A    between atoms: _361  and  _364
REMARK  153  A    between atoms: _364  and  _365
REMARK  154  A    between atoms: _365  and  _366
REMARK  155  A    between atoms: _366  and  _367
REMARK  156  A    between atoms: _376  and  _378
REMARK  157  A    between atoms: _378  and  _379
REMARK  158  A    between atoms: _378  and  _381
REMARK  159  A    between atoms: _381  and  _382
REMARK  160  A    between atoms: _384  and  _386
REMARK  161  A    between atoms: _386  and  _387
REMARK  162  A    between atoms: _386  and  _389
REMARK  163  A    between atoms: _389  and  _390
REMARK  164  A    between atoms: _393  and  _395
REMARK  165  A    between atoms: _395  and  _396
REMARK  166  A    between atoms: _395  and  _398
REMARK  167  A    between atoms: _398  and  _399
REMARK  168  A    between atoms: _404  and  _405
REMARK  169  A    between atoms: _407  and  _409
REMARK  170  A    between atoms: _409  and  _410
REMARK  171  A    between atoms: _409  and  _412
REMARK  172  A    between atoms: _412  and  _413
REMARK  173  A    between atoms: _416  and  _418
REMARK  174  A    between atoms: _418  and  _419
REMARK  175  A    between atoms: _422  and  _424
REMARK  176  A    between atoms: _424  and  _425
REMARK  177  A    between atoms: _424  and  _427
REMARK  178  A    between atoms: _427  and  _428
REMARK  179  A    between atoms: _431  and  _433
REMARK  180  A    between atoms: _433  and  _434
REMARK  181  A    between atoms: _433  and  _436
REMARK  182  A    between atoms: _436  and  _437
REMARK  183  A    between atoms: _441  and  _442
REMARK  184  A    between atoms: _447  and  _449
REMARK  185  A    between atoms: _449  and  _450
REMARK  186  A    between atoms: _449  and  _452
REMARK  187  A    between atoms: _452  and  _453
REMARK  188  A    between atoms: _453  and  _454
REMARK  189  A    between atoms: _457  and  _459
REMARK  190  A    between atoms: _459  and  _460
REMARK  191  A    between atoms: _459  and  _462
REMARK  192  A    between atoms: _462  and  _463
REMARK  193  A    between atoms: _466  and  _468
REMARK  194  A    between atoms: _468  and  _469
REMARK  195  A    between atoms: _468  and  _471
REMARK  196  A    between atoms: _471  and  _472
REMARK  197  A    between atoms: _477  and  _479
REMARK  198  A    between atoms: _479  and  _480
REMARK  199  A    between atoms: _479  and  _482
REMARK  200  A    between atoms: _482  and  _483
REMARK  201  A    between atoms: _483  and  _484
REMARK  202  A    between atoms: _484  and  _485
REMARK  203  A    between atoms: _485  and  _486
REMARK  204  A    between atoms: _490  and  _492
REMARK  205  A    between atoms: _492  and  _493
REMARK  206  A    between atoms: _492  and  _495
REMARK  207  A    between atoms: _495  and  _496
REMARK                            x       y       z     vdW  Elec       q    Type
REMARK                         _______ _______ _______ _____ _____    ______ ____
ROOT
ATOM      1  O   HOH     1      19.769  -8.419   7.249  0.00  0.00    +0.000 OA
ENDROOT
TORSDOF 0
REMARK  Name = ../refined-set-2016/3g1d/3g1d_pocket.pdb
REMARK  207 active torsions:
REMARK  status: ('A' for Active; 'I' for Inactive)
REMARK    1  A    between atoms: _1  and  _3
REMARK    2  A    between atoms: _3  and  _4
REMARK    3  A    between atoms: _3  and  _6
REMARK    4  A    between atoms: _6  and  _7
REMARK    5  A    between atoms: _10  and  _12
REMARK    6  A    between atoms: _12  and  _13
REMARK    7  A    between atoms: _12  and  _15
REMARK    8  A    between atoms: _15  and  _16
REMARK    9  A    between atoms: _19  and  _21
REMARK   10  A    between atoms: _21  and  _22
REMARK   11  A    between atoms: _25  and  _27
REMARK   12  A    between atoms: _27  and  _28
REMARK   13  A    between atoms: _27  and  _30
REMARK   14  A    between atoms: _30  and  _31
REMARK   15  A    between atoms: _31  and  _32
REMARK   16  A    between atoms: _34  and  _36
REMARK   17  A    between atoms: _36  and  _37
REMARK   18  A    between atoms: _36  and  _39
REMARK   19  A    between atoms: _39  and  _40
REMARK   20  A    between atoms: _43  and  _45
REMARK   21  A    between atoms: _45  and  _46
REMARK   22  A    between atoms: _45  and  _48
REMARK   23  A    between atoms: _48  and  _49
REMARK   24  A    between atoms: _49  and  _50
REMARK   25  A    between atoms: _50  and  _51
REMARK   26  A    between atoms: _51  and  _52
REMARK   27  A    between atoms: _56  and  _58
REMARK   28  A    between atoms: _58  and  _59
REMARK   29  A    between atoms: _58  and  _61
REMARK   30  A    between atoms: _61  and  _62
REMARK   31  A    between atoms: _65  and  _67
REMARK   32  A    between atoms: _67  and  _68
REMARK   33  A    between atoms: _70  and  _72
REMARK   34  A    between atoms: _72  and  _73
REMARK   35  A    between atoms: _72  and  _75
REMARK   36  A    between atoms: _75  and  _76
REMARK   37  A    between atoms: _81  and  _82
REMARK   38  A    between atoms: _85  and  _86
REMARK   39  A    between atoms: _91  and  _93
REMARK   40  A    between atoms: _93  and  _94
REMARK   41  A    between atoms: _93  and  _96
REMARK   42  A    between atoms: _96  and  _97
REMARK   43  A    between atoms: _100  and  _102
REMARK   44  A    between atoms: _102  and  _103
REMARK   45  A    between atoms: _102  and  _105
REMARK   46  A    between atoms: _105  and  _106
REMARK   47  A    between atoms: _109  and  _111
REMARK   48  A    between atoms: _111  and  _112
REMARK   49  A    between atoms: _111  and  _114
REMARK   50  A    between atoms: _114  and  _115
REMARK   51  A    between atoms: _115  and  _116
REMARK   52  A    between atoms: _116  and  _117
REMARK   53  A    between atoms: _117  and  _118
REMARK   54  A    between atoms: _122  and  _124
REMARK   55  A    between atoms: _124  and  _125
REMARK   56  A    between atoms: _124  and  _127
REMARK   57  A    between atoms: _127  and  _128
REMARK   58  A    between atoms: _131  and  _133
REMARK   59  A    between atoms: _133  and  _134
REMARK   60  A    between atoms: _133  and  _136
REMARK   61  A    between atoms: _136  and  _137
REMARK   62  A    between atoms: _142  and  _144
REMARK   63  A    between atoms: _144  and  _145
REMARK   64  A    between atoms: _144  and  _147
REMARK   65  A    between atoms: _147  and  _148
REMARK   66  A    between atoms: _151  and  _153
REMARK   67  A    between atoms: _153  and  _154
REMARK   68  A    between atoms: _153  and  _156
REMARK   69  A    between atoms: _156  and  _157
REMARK   70  A    between atoms: _160  and  _162
REMARK   71  A    between atoms: _162  and  _163
REMARK   72  A    between atoms: _162  and  _165
REMARK   73  A    between atoms: _165  and  _166
REMARK   74  A    between atoms: _166  and  _167
REMARK   75  A    between atoms: _170  and  _172
REMARK   76  A    between atoms: _172  and  _173
REMARK   77  A    between atoms: _172  and  _175
REMARK   78  A    between atoms: _175  and  _176
REMARK   79  A    between atoms: _176  and  _177
REMARK   80  A    between atoms: _179  and  _181
REMARK   81  A    between atoms: _181  and  _182
REMARK   82  A    between atoms: _181  and  _184
REMARK   83  A    between atoms: _184  and  _185
REMARK   84  A    between atoms: _187  and  _189
REMARK   85  A    between atoms: _189  and  _190
REMARK   86  A    between atoms: _189  and  _192
REMARK   87  A    between atoms: _192  and  _193
REMARK   88  A    between atoms: _198  and  _200
REMARK   89  A    between atoms: _200  and  _201
REMARK   90  A    between atoms: _204  and  _206
REMARK   91  A    between atoms: _206  and  _207
REMARK   92  A    between atoms: _206  and  _209
REMARK   93  A    between atoms: _209  and  _210
REMARK   94  A    between atoms: _213  and  _215
REMARK   95  A    between atoms: _215  and  _216
REMARK   96  A    between atoms: _215  and  _218
REMARK   97  A    between atoms: _221  and  _223
REMARK   98  A    between atoms: _223  and  _224
REMARK   99  A    between atoms: _227  and  _228
REMARK  100  A    between atoms: _233  and  _235
REMARK  101  A    between atoms: _235  and  _236
REMARK  102  A    between atoms: _235  and  _238
REMARK  103  A    between atoms: _238  and  _239
REMARK  104  A    between atoms: _241  and  _243
REMARK  105  A    between atoms: _243  and  _244
REMARK  106  A    between atoms: _243  and  _246
REMARK  107  A    between atoms: _246  and  _247
REMARK  108  A    between atoms: _250  and  _252
REMARK  109  A    between atoms: _252  and  _253
REMARK  110  A    between atoms: _252  and  _255
REMARK  111  A    between atoms: _255  and  _256
REMARK  112  A    between atoms: _256  and  _257
REMARK  113  A    between atoms: _257  and  _258
REMARK  114  A    between atoms: _267  and  _269
REMARK  115  A    between atoms: _269  and  _270
REMARK  116  A    between atoms: _269  and  _272
REMARK  117  A    between atoms: _272  and  _273
REMARK  118  A    between atoms: _276  and  _278
REMARK  119  A    between atoms: _278  and  _279
REMARK  120  A    between atoms: _278  and  _281
REMARK  121  A    between atoms: _281  and  _282
REMARK  122  A    between atoms: _285  and  _286
REMARK  123  A    between atoms: _291  and  _293
REMARK  124  A    between atoms: _293  and  _294
REMARK  125  A    between atoms: _296  and  _298
REMARK  126  A    between atoms: _298  and  _299
REMARK  127  A    between atoms: _298  and  _301
REMARK  128  A    between atoms: _304  and  _306
REMARK  129  A    between atoms: _306  and  _307
REMARK  130  A    between atoms: _309  and  _311
REMARK  131  A    between atoms: _311  and  _312
REMARK  132  A    between atoms: _315  and  _317
REMARK  133  A    between atoms: _317  and  _318
REMARK  134  A    between atoms: _317  and  _320
REMARK  135  A    between atoms: _320  and  _321
REMARK  136  A    between atoms: _321  and  _322
REMARK  137  A    between atoms: _327  and  _329
REMARK  138  A    between atoms: _329  and  _330
REMARK  139  A    between atoms: _332  and  _334
REMARK  140  A    between atoms: _334  and  _335
REMARK  141  A    between atoms: _337  and  _339
REMARK  142  A    between atoms: _339  and  _340
REMARK  143  A    between atoms: _339  and  _342
REMARK  144  A    between atoms: _342  and  _343
REMARK  145  A    between atoms: _346  and  _348
REMARK  146  A    between atoms: _348  and  _349
REMARK  147  A    between atoms: _348  and  _351
REMARK  148  A    between atoms: _354  and  _356
REMARK  149  A    between atoms: _356  and  _357
REMARK  150  A    between atoms: _359  and  _361
REMARK  151  A    between atoms: _361  and  _362
REMARK  152  A    between atoms: _361  and  _364
REMARK  153  A    between atoms: _364  and  _365
REMARK  154  A    between atoms: _365  and  _366
REMARK  155  A    between atoms: _366  and  _367
REMARK  156  A    between atoms: _376  and  _378
REMARK  157  A    between atoms: _378  and  _379
REMARK  158  A    between atoms: _378  and  _381
REMARK  159  A    between atoms: _381  and  _382
REMARK  160  A    between atoms: _384  and  _386
REMARK  161  A    between atoms: _386  and  _387
REMARK  162  A    between atoms: _386  and  _389
REMARK  163  A    between atoms: _389  and  _390
REMARK  164  A    between atoms: _393  and  _395
REMARK  165  A    between atoms: _395  and  _396
REMARK  166  A    between atoms: _395  and  _398
REMARK  167  A    between atoms: _398  and  _399
REMARK  168  A    between atoms: _404  and  _405
REMARK  169  A    between atoms: _407  and  _409
REMARK  170  A    between atoms: _409  and  _410
REMARK  171  A    between atoms: _409  and  _412
REMARK  172  A    between atoms: _412  and  _413
REMARK  173  A    between atoms: _416  and  _418
REMARK  174  A    between atoms: _418  and  _419
REMARK  175  A    between atoms: _422  and  _424
REMARK  176  A    between atoms: _424  and  _425
REMARK  177  A    between atoms: _424  and  _427
REMARK  178  A    between atoms: _427  and  _428
REMARK  179  A    between atoms: _431  and  _433
REMARK  180  A    between atoms: _433  and  _434
REMARK  181  A    between atoms: _433  and  _436
REMARK  182  A    between atoms: _436  and  _437
REMARK  183  A    between atoms: _441  and  _442
REMARK  184  A    between atoms: _447  and  _449
REMARK  185  A    between atoms: _449  and  _450
REMARK  186  A    between atoms: _449  and  _452
REMARK  187  A    between atoms: _452  and  _453
REMARK  188  A    between atoms: _453  and  _454
REMARK  189  A    between atoms: _457  and  _459
REMARK  190  A    between atoms: _459  and  _460
REMARK  191  A    between atoms: _459  and  _462
REMARK  192  A    between atoms: _462  and  _463
REMARK  193  A    between atoms: _466  and  _468
REMARK  194  A    between atoms: _468  and  _469
REMARK  195  A    between atoms: _468  and  _471
REMARK  196  A    between atoms: _471  and  _472
REMARK  197  A    between atoms: _477  and  _479
REMARK  198  A    between atoms: _479  and  _480
REMARK  199  A    between atoms: _479  and  _482
REMARK  200  A    between atoms: _482  and  _483
REMARK  201  A    between atoms: _483  and  _484
REMARK  202  A    between atoms: _484  and  _485
REMARK  203  A    between atoms: _485  and  _486
REMARK  204  A    between atoms: _490  and  _492
REMARK  205  A    between atoms: _492  and  _493
REMARK  206  A    between atoms: _492  and  _495
REMARK  207  A    between atoms: _495  and  _496
REMARK                            x       y       z     vdW  Elec       q    Type
REMARK                         _______ _______ _______ _____ _____    ______ ____
ROOT
ATOM      1  O   HOH     1      14.516  -0.923  15.165  0.00  0.00    +0.000 OA
ENDROOT
TORSDOF 0
REMARK  Name = ../refined-set-2016/3g1d/3g1d_pocket.pdb
REMARK  207 active torsions:
REMARK  status: ('A' for Active; 'I' for Inactive)
REMARK    1  A    between atoms: _1  and  _3
REMARK    2  A    between atoms: _3  and  _4
REMARK    3  A    between atoms: _3  and  _6
REMARK    4  A    between atoms: _6  and  _7
REMARK    5  A    between atoms: _10  and  _12
REMARK    6  A    between atoms: _12  and  _13
REMARK    7  A    between atoms: _12  and  _15
REMARK    8  A    between atoms: _15  and  _16
REMARK    9  A    between atoms: _19  and  _21
REMARK   10  A    between atoms: _21  and  _22
REMARK   11  A    between atoms: _25  and  _27
REMARK   12  A    between atoms: _27  and  _28
REMARK   13  A    between atoms: _27  and  _30
REMARK   14  A    between atoms: _30  and  _31
REMARK   15  A    between atoms: _31  and  _32
REMARK   16  A    between atoms: _34  and  _36
REMARK   17  A    between atoms: _36  and  _37
REMARK   18  A    between atoms: _36  and  _39
REMARK   19  A    between atoms: _39  and  _40
REMARK   20  A    between atoms: _43  and  _45
REMARK   21  A    between atoms: _45  and  _46
REMARK   22  A    between atoms: _45  and  _48
REMARK   23  A    between atoms: _48  and  _49
REMARK   24  A    between atoms: _49  and  _50
REMARK   25  A    between atoms: _50  and  _51
REMARK   26  A    between atoms: _51  and  _52
REMARK   27  A    between atoms: _56  and  _58
REMARK   28  A    between atoms: _58  and  _59
REMARK   29  A    between atoms: _58  and  _61
REMARK   30  A    between atoms: _61  and  _62
REMARK   31  A    between atoms: _65  and  _67
REMARK   32  A    between atoms: _67  and  _68
REMARK   33  A    between atoms: _70  and  _72
REMARK   34  A    between atoms: _72  and  _73
REMARK   35  A    between atoms: _72  and  _75
REMARK   36  A    between atoms: _75  and  _76
REMARK   37  A    between atoms: _81  and  _82
REMARK   38  A    between atoms: _85  and  _86
REMARK   39  A    between atoms: _91  and  _93
REMARK   40  A    between atoms: _93  and  _94
REMARK   41  A    between atoms: _93  and  _96
REMARK   42  A    between atoms: _96  and  _97
REMARK   43  A    between atoms: _100  and  _102
REMARK   44  A    between atoms: _102  and  _103
REMARK   45  A    between atoms: _102  and  _105
REMARK   46  A    between atoms: _105  and  _106
REMARK   47  A    between atoms: _109  and  _111
REMARK   48  A    between atoms: _111  and  _112
REMARK   49  A    between atoms: _111  and  _114
REMARK   50  A    between atoms: _114  and  _115
REMARK   51  A    between atoms: _115  and  _116
REMARK   52  A    between atoms: _116  and  _117
REMARK   53  A    between atoms: _117  and  _118
REMARK   54  A    between atoms: _122  and  _124
REMARK   55  A    between atoms: _124  and  _125
REMARK   56  A    between atoms: _124  and  _127
REMARK   57  A    between atoms: _127  and  _128
REMARK   58  A    between atoms: _131  and  _133
REMARK   59  A    between atoms: _133  and  _134
REMARK   60  A    between atoms: _133  and  _136
REMARK   61  A    between atoms: _136  and  _137
REMARK   62  A    between atoms: _142  and  _144
REMARK   63  A    between atoms: _144  and  _145
REMARK   64  A    between atoms: _144  and  _147
REMARK   65  A    between atoms: _147  and  _148
REMARK   66  A    between atoms: _151  and  _153
REMARK   67  A    between atoms: _153  and  _154
REMARK   68  A    between atoms: _153  and  _156
REMARK   69  A    between atoms: _156  and  _157
REMARK   70  A    between atoms: _160  and  _162
REMARK   71  A    between atoms: _162  and  _163
REMARK   72  A    between atoms: _162  and  _165
REMARK   73  A    between atoms: _165  and  _166
REMARK   74  A    between atoms: _166  and  _167
REMARK   75  A    between atoms: _170  and  _172
REMARK   76  A    between atoms: _172  and  _173
REMARK   77  A    between atoms: _172  and  _175
REMARK   78  A    between atoms: _175  and  _176
REMARK   79  A    between atoms: _176  and  _177
REMARK   80  A    between atoms: _179  and  _181
REMARK   81  A    between atoms: _181  and  _182
REMARK   82  A    between atoms: _181  and  _184
REMARK   83  A    between atoms: _184  and  _185
REMARK   84  A    between atoms: _187  and  _189
REMARK   85  A    between atoms: _189  and  _190
REMARK   86  A    between atoms: _189  and  _192
REMARK   87  A    between atoms: _192  and  _193
REMARK   88  A    between atoms: _198  and  _200
REMARK   89  A    between atoms: _200  and  _201
REMARK   90  A    between atoms: _204  and  _206
REMARK   91  A    between atoms: _206  and  _207
REMARK   92  A    between atoms: _206  and  _209
REMARK   93  A    between atoms: _209  and  _210
REMARK   94  A    between atoms: _213  and  _215
REMARK   95  A    between atoms: _215  and  _216
REMARK   96  A    between atoms: _215  and  _218
REMARK   97  A    between atoms: _221  and  _223
REMARK   98  A    between atoms: _223  and  _224
REMARK   99  A    between atoms: _227  and  _228
REMARK  100  A    between atoms: _233  and  _235
REMARK  101  A    between atoms: _235  and  _236
REMARK  102  A    between atoms: _235  and  _238
REMARK  103  A    between atoms: _238  and  _239
REMARK  104  A    between atoms: _241  and  _243
REMARK  105  A    between atoms: _243  and  _244
REMARK  106  A    between atoms: _243  and  _246
REMARK  107  A    between atoms: _246  and  _247
REMARK  108  A    between atoms: _250  and  _252
REMARK  109  A    between atoms: _252  and  _253
REMARK  110  A    between atoms: _252  and  _255
REMARK  111  A    between atoms: _255  and  _256
REMARK  112  A    between atoms: _256  and  _257
REMARK  113  A    between atoms: _257  and  _258
REMARK  114  A    between atoms: _267  and  _269
REMARK  115  A    between atoms: _269  and  _270
REMARK  116  A    between atoms: _269  and  _272
REMARK  117  A    between atoms: _272  and  _273
REMARK  118  A    between atoms: _276  and  _278
REMARK  119  A    between atoms: _278  and  _279
REMARK  120  A    between atoms: _278  and  _281
REMARK  121  A    between atoms: _281  and  _282
REMARK  122  A    between atoms: _285  and  _286
REMARK  123  A    between atoms: _291  and  _293
REMARK  124  A    between atoms: _293  and  _294
REMARK  125  A    between atoms: _296  and  _298
REMARK  126  A    between atoms: _298  and  _299
REMARK  127  A    between atoms: _298  and  _301
REMARK  128  A    between atoms: _304  and  _306
REMARK  129  A    between atoms: _306  and  _307
REMARK  130  A    between atoms: _309  and  _311
REMARK  131  A    between atoms: _311  and  _312
REMARK  132  A    between atoms: _315  and  _317
REMARK  133  A    between atoms: _317  and  _318
REMARK  134  A    between atoms: _317  and  _320
REMARK  135  A    between atoms: _320  and  _321
REMARK  136  A    between atoms: _321  and  _322
REMARK  137  A    between atoms: _327  and  _329
REMARK  138  A    between atoms: _329  and  _330
REMARK  139  A    between atoms: _332  and  _334
REMARK  140  A    between atoms: _334  and  _335
REMARK  141  A    between atoms: _337  and  _339
REMARK  142  A    between atoms: _339  and  _340
REMARK  143  A    between atoms: _339  and  _342
REMARK  144  A    between atoms: _342  and  _343
REMARK  145  A    between atoms: _346  and  _348
REMARK  146  A    between atoms: _348  and  _349
REMARK  147  A    between atoms: _348  and  _351
REMARK  148  A    between atoms: _354  and  _356
REMARK  149  A    between atoms: _356  and  _357
REMARK  150  A    between atoms: _359  and  _361
REMARK  151  A    between atoms: _361  and  _362
REMARK  152  A    between atoms: _361  and  _364
REMARK  153  A    between atoms: _364  and  _365
REMARK  154  A    between atoms: _365  and  _366
REMARK  155  A    between atoms: _366  and  _367
REMARK  156  A    between atoms: _376  and  _378
REMARK  157  A    between atoms: _378  and  _379
REMARK  158  A    between atoms: _378  and  _381
REMARK  159  A    between atoms: _381  and  _382
REMARK  160  A    between atoms: _384  and  _386
REMARK  161  A    between atoms: _386  and  _387
REMARK  162  A    between atoms: _386  and  _389
REMARK  163  A    between atoms: _389  and  _390
REMARK  164  A    between atoms: _393  and  _395
REMARK  165  A    between atoms: _395  and  _396
REMARK  166  A    between atoms: _395  and  _398
REMARK  167  A    between atoms: _398  and  _399
REMARK  168  A    between atoms: _404  and  _405
REMARK  169  A    between atoms: _407  and  _409
REMARK  170  A    between atoms: _409  and  _410
REMARK  171  A    between atoms: _409  and  _412
REMARK  172  A    between atoms: _412  and  _413
REMARK  173  A    between atoms: _416  and  _418
REMARK  174  A    between atoms: _418  and  _419
REMARK  175  A    between atoms: _422  and  _424
REMARK  176  A    between atoms: _424  and  _425
REMARK  177  A    between atoms: _424  and  _427
REMARK  178  A    between atoms: _427  and  _428
REMARK  179  A    between atoms: _431  and  _433
REMARK  180  A    between atoms: _433  and  _434
REMARK  181  A    between atoms: _433  and  _436
REMARK  182  A    between atoms: _436  and  _437
REMARK  183  A    between atoms: _441  and  _442
REMARK  184  A    between atoms: _447  and  _449
REMARK  185  A    between atoms: _449  and  _450
REMARK  186  A    between atoms: _449  and  _452
REMARK  187  A    between atoms: _452  and  _453
REMARK  188  A    between atoms: _453  and  _454
REMARK  189  A    between atoms: _457  and  _459
REMARK  190  A    between atoms: _459  and  _460
REMARK  191  A    between atoms: _459  and  _462
REMARK  192  A    between atoms: _462  and  _463
REMARK  193  A    between atoms: _466  and  _468
REMARK  194  A    between atoms: _468  and  _469
REMARK  195  A    between atoms: _468  and  _471
REMARK  196  A    between atoms: _471  and  _472
REMARK  197  A    between atoms: _477  and  _479
REMARK  198  A    between atoms: _479  and  _480
REMARK  199  A    between atoms: _479  and  _482
REMARK  200  A    between atoms: _482  and  _483
REMARK  201  A    between atoms: _483  and  _484
REMARK  202  A    between atoms: _484  and  _485
REMARK  203  A    between atoms: _485  and  _486
REMARK  204  A    between atoms: _490  and  _492
REMARK  205  A    between atoms: _492  and  _493
REMARK  206  A    between atoms: _492  and  _495
REMARK  207  A    between atoms: _495  and  _496
REMARK                            x       y       z     vdW  Elec       q    Type
REMARK                         _______ _______ _______ _____ _____    ______ ____
ROOT
ATOM      1  O   HOH     1      18.671  -7.827   4.904  0.00  0.00    +0.000 OA
ENDROOT
TORSDOF 0
REMARK  Name = ../refined-set-2016/3g1d/3g1d_pocket.pdb
REMARK  207 active torsions:
REMARK  status: ('A' for Active; 'I' for Inactive)
REMARK    1  A    between atoms: _1  and  _3
REMARK    2  A    between atoms: _3  and  _4
REMARK    3  A    between atoms: _3  and  _6
REMARK    4  A    between atoms: _6  and  _7
REMARK    5  A    between atoms: _10  and  _12
REMARK    6  A    between atoms: _12  and  _13
REMARK    7  A    between atoms: _12  and  _15
REMARK    8  A    between atoms: _15  and  _16
REMARK    9  A    between atoms: _19  and  _21
REMARK   10  A    between atoms: _21  and  _22
REMARK   11  A    between atoms: _25  and  _27
REMARK   12  A    between atoms: _27  and  _28
REMARK   13  A    between atoms: _27  and  _30
REMARK   14  A    between atoms: _30  and  _31
REMARK   15  A    between atoms: _31  and  _32
REMARK   16  A    between atoms: _34  and  _36
REMARK   17  A    between atoms: _36  and  _37
REMARK   18  A    between atoms: _36  and  _39
REMARK   19  A    between atoms: _39  and  _40
REMARK   20  A    between atoms: _43  and  _45
REMARK   21  A    between atoms: _45  and  _46
REMARK   22  A    between atoms: _45  and  _48
REMARK   23  A    between atoms: _48  and  _49
REMARK   24  A    between atoms: _49  and  _50
REMARK   25  A    between atoms: _50  and  _51
REMARK   26  A    between atoms: _51  and  _52
REMARK   27  A    between atoms: _56  and  _58
REMARK   28  A    between atoms: _58  and  _59
REMARK   29  A    between atoms: _58  and  _61
REMARK   30  A    between atoms: _61  and  _62
REMARK   31  A    between atoms: _65  and  _67
REMARK   32  A    between atoms: _67  and  _68
REMARK   33  A    between atoms: _70  and  _72
REMARK   34  A    between atoms: _72  and  _73
REMARK   35  A    between atoms: _72  and  _75
REMARK   36  A    between atoms: _75  and  _76
REMARK   37  A    between atoms: _81  and  _82
REMARK   38  A    between atoms: _85  and  _86
REMARK   39  A    between atoms: _91  and  _93
REMARK   40  A    between atoms: _93  and  _94
REMARK   41  A    between atoms: _93  and  _96
REMARK   42  A    between atoms: _96  and  _97
REMARK   43  A    between atoms: _100  and  _102
REMARK   44  A    between atoms: _102  and  _103
REMARK   45  A    between atoms: _102  and  _105
REMARK   46  A    between atoms: _105  and  _106
REMARK   47  A    between atoms: _109  and  _111
REMARK   48  A    between atoms: _111  and  _112
REMARK   49  A    between atoms: _111  and  _114
REMARK   50  A    between atoms: _114  and  _115
REMARK   51  A    between atoms: _115  and  _116
REMARK   52  A    between atoms: _116  and  _117
REMARK   53  A    between atoms: _117  and  _118
REMARK   54  A    between atoms: _122  and  _124
REMARK   55  A    between atoms: _124  and  _125
REMARK   56  A    between atoms: _124  and  _127
REMARK   57  A    between atoms: _127  and  _128
REMARK   58  A    between atoms: _131  and  _133
REMARK   59  A    between atoms: _133  and  _134
REMARK   60  A    between atoms: _133  and  _136
REMARK   61  A    between atoms: _136  and  _137
REMARK   62  A    between atoms: _142  and  _144
REMARK   63  A    between atoms: _144  and  _145
REMARK   64  A    between atoms: _144  and  _147
REMARK   65  A    between atoms: _147  and  _148
REMARK   66  A    between atoms: _151  and  _153
REMARK   67  A    between atoms: _153  and  _154
REMARK   68  A    between atoms: _153  and  _156
REMARK   69  A    between atoms: _156  and  _157
REMARK   70  A    between atoms: _160  and  _162
REMARK   71  A    between atoms: _162  and  _163
REMARK   72  A    between atoms: _162  and  _165
REMARK   73  A    between atoms: _165  and  _166
REMARK   74  A    between atoms: _166  and  _167
REMARK   75  A    between atoms: _170  and  _172
REMARK   76  A    between atoms: _172  and  _173
REMARK   77  A    between atoms: _172  and  _175
REMARK   78  A    between atoms: _175  and  _176
REMARK   79  A    between atoms: _176  and  _177
REMARK   80  A    between atoms: _179  and  _181
REMARK   81  A    between atoms: _181  and  _182
REMARK   82  A    between atoms: _181  and  _184
REMARK   83  A    between atoms: _184  and  _185
REMARK   84  A    between atoms: _187  and  _189
REMARK   85  A    between atoms: _189  and  _190
REMARK   86  A    between atoms: _189  and  _192
REMARK   87  A    between atoms: _192  and  _193
REMARK   88  A    between atoms: _198  and  _200
REMARK   89  A    between atoms: _200  and  _201
REMARK   90  A    between atoms: _204  and  _206
REMARK   91  A    between atoms: _206  and  _207
REMARK   92  A    between atoms: _206  and  _209
REMARK   93  A    between atoms: _209  and  _210
REMARK   94  A    between atoms: _213  and  _215
REMARK   95  A    between atoms: _215  and  _216
REMARK   96  A    between atoms: _215  and  _218
REMARK   97  A    between atoms: _221  and  _223
REMARK   98  A    between atoms: _223  and  _224
REMARK   99  A    between atoms: _227  and  _228
REMARK  100  A    between atoms: _233  and  _235
REMARK  101  A    between atoms: _235  and  _236
REMARK  102  A    between atoms: _235  and  _238
REMARK  103  A    between atoms: _238  and  _239
REMARK  104  A    between atoms: _241  and  _243
REMARK  105  A    between atoms: _243  and  _244
REMARK  106  A    between atoms: _243  and  _246
REMARK  107  A    between atoms: _246  and  _247
REMARK  108  A    between atoms: _250  and  _252
REMARK  109  A    between atoms: _252  and  _253
REMARK  110  A    between atoms: _252  and  _255
REMARK  111  A    between atoms: _255  and  _256
REMARK  112  A    between atoms: _256  and  _257
REMARK  113  A    between atoms: _257  and  _258
REMARK  114  A    between atoms: _267  and  _269
REMARK  115  A    between atoms: _269  and  _270
REMARK  116  A    between atoms: _269  and  _272
REMARK  117  A    between atoms: _272  and  _273
REMARK  118  A    between atoms: _276  and  _278
REMARK  119  A    between atoms: _278  and  _279
REMARK  120  A    between atoms: _278  and  _281
REMARK  121  A    between atoms: _281  and  _282
REMARK  122  A    between atoms: _285  and  _286
REMARK  123  A    between atoms: _291  and  _293
REMARK  124  A    between atoms: _293  and  _294
REMARK  125  A    between atoms: _296  and  _298
REMARK  126  A    between atoms: _298  and  _299
REMARK  127  A    between atoms: _298  and  _301
REMARK  128  A    between atoms: _304  and  _306
REMARK  129  A    between atoms: _306  and  _307
REMARK  130  A    between atoms: _309  and  _311
REMARK  131  A    between atoms: _311  and  _312
REMARK  132  A    between atoms: _315  and  _317
REMARK  133  A    between atoms: _317  and  _318
REMARK  134  A    between atoms: _317  and  _320
REMARK  135  A    between atoms: _320  and  _321
REMARK  136  A    between atoms: _321  and  _322
REMARK  137  A    between atoms: _327  and  _329
REMARK  138  A    between atoms: _329  and  _330
REMARK  139  A    between atoms: _332  and  _334
REMARK  140  A    between atoms: _334  and  _335
REMARK  141  A    between atoms: _337  and  _339
REMARK  142  A    between atoms: _339  and  _340
REMARK  143  A    between atoms: _339  and  _342
REMARK  144  A    between atoms: _342  and  _343
REMARK  145  A    between atoms: _346  and  _348
REMARK  146  A    between atoms: _348  and  _349
REMARK  147  A    between atoms: _348  and  _351
REMARK  148  A    between atoms: _354  and  _356
REMARK  149  A    between atoms: _356  and  _357
REMARK  150  A    between atoms: _359  and  _361
REMARK  151  A    between atoms: _361  and  _362
REMARK  152  A    between atoms: _361  and  _364
REMARK  153  A    between atoms: _364  and  _365
REMARK  154  A    between atoms: _365  and  _366
REMARK  155  A    between atoms: _366  and  _367
REMARK  156  A    between atoms: _376  and  _378
REMARK  157  A    between atoms: _378  and  _379
REMARK  158  A    between atoms: _378  and  _381
REMARK  159  A    between atoms: _381  and  _382
REMARK  160  A    between atoms: _384  and  _386
REMARK  161  A    between atoms: _386  and  _387
REMARK  162  A    between atoms: _386  and  _389
REMARK  163  A    between atoms: _389  and  _390
REMARK  164  A    between atoms: _393  and  _395
REMARK  165  A    between atoms: _395  and  _396
REMARK  166  A    between atoms: _395  and  _398
REMARK  167  A    between atoms: _398  and  _399
REMARK  168  A    between atoms: _404  and  _405
REMARK  169  A    between atoms: _407  and  _409
REMARK  170  A    between atoms: _409  and  _410
REMARK  171  A    between atoms: _409  and  _412
REMARK  172  A    between atoms: _412  and  _413
REMARK  173  A    between atoms: _416  and  _418
REMARK  174  A    between atoms: _418  and  _419
REMARK  175  A    between atoms: _422  and  _424
REMARK  176  A    between atoms: _424  and  _425
REMARK  177  A    between atoms: _424  and  _427
REMARK  178  A    between atoms: _427  and  _428
REMARK  179  A    between atoms: _431  and  _433
REMARK  180  A    between atoms: _433  and  _434
REMARK  181  A    between atoms: _433  and  _436
REMARK  182  A    between atoms: _436  and  _437
REMARK  183  A    between atoms: _441  and  _442
REMARK  184  A    between atoms: _447  and  _449
REMARK  185  A    between atoms: _449  and  _450
REMARK  186  A    between atoms: _449  and  _452
REMARK  187  A    between atoms: _452  and  _453
REMARK  188  A    between atoms: _453  and  _454
REMARK  189  A    between atoms: _457  and  _459
REMARK  190  A    between atoms: _459  and  _460
REMARK  191  A    between atoms: _459  and  _462
REMARK  192  A    between atoms: _462  and  _463
REMARK  193  A    between atoms: _466  and  _468
REMARK  194  A    between atoms: _468  and  _469
REMARK  195  A    between atoms: _468  and  _471
REMARK  196  A    between atoms: _471  and  _472
REMARK  197  A    between atoms: _477  and  _479
REMARK  198  A    between atoms: _479  and  _480
REMARK  199  A    between atoms: _479  and  _482
REMARK  200  A    between atoms: _482  and  _483
REMARK  201  A    between atoms: _483  and  _484
REMARK  202  A    between atoms: _484  and  _485
REMARK  203  A    between atoms: _485  and  _486
REMARK  204  A    between atoms: _490  and  _492
REMARK  205  A    between atoms: _492  and  _493
REMARK  206  A    between atoms: _492  and  _495
REMARK  207  A    between atoms: _495  and  _496
REMARK                            x       y       z     vdW  Elec       q    Type
REMARK                         _______ _______ _______ _____ _____    ______ ____
ROOT
ATOM      1  O   HOH     1      22.324  -4.867  13.390  0.00  0.00    +0.000 OA
ENDROOT
TORSDOF 0
