REMARK  Name = ../refined-set-2016/3q71/3q71_pocket.pdb
REMARK  207 active torsions:
REMARK  status: ('A' for Active; 'I' for Inactive)
REMARK    1  A    between atoms: _1  and  _3
REMARK    2  A    between atoms: _3  and  _4
REMARK    3  A    between atoms: _3  and  _6
REMARK    4  A    between atoms: _9  and  _11
REMARK    5  A    between atoms: _11  and  _12
REMARK    6  A    between atoms: _11  and  _14
REMARK    7  A    between atoms: _14  and  _15
REMARK    8  A    between atoms: _15  and  _16
REMARK    9  A    between atoms: _16  and  _17
REMARK   10  A    between atoms: _17  and  _18
REMARK   11  A    between atoms: _22  and  _24
REMARK   12  A    between atoms: _24  and  _25
REMARK   13  A    between atoms: _24  and  _27
REMARK   14  A    between atoms: _27  and  _28
REMARK   15  A    between atoms: _28  and  _29
REMARK   16  A    between atoms: _32  and  _34
REMARK   17  A    between atoms: _34  and  _35
REMARK   18  A    between atoms: _37  and  _39
REMARK   19  A    between atoms: _39  and  _40
REMARK   20  A    between atoms: _39  and  _42
REMARK   21  A    between atoms: _45  and  _47
REMARK   22  A    between atoms: _47  and  _48
REMARK   23  A    between atoms: _47  and  _50
REMARK   24  A    between atoms: _50  and  _51
REMARK   25  A    between atoms: _51  and  _52
REMARK   26  A    between atoms: _57  and  _59
REMARK   27  A    between atoms: _59  and  _60
REMARK   28  A    between atoms: _59  and  _62
REMARK   29  A    between atoms: _62  and  _63
REMARK   30  A    between atoms: _68  and  _70
REMARK   31  A    between atoms: _70  and  _71
REMARK   32  A    between atoms: _74  and  _76
REMARK   33  A    between atoms: _76  and  _77
REMARK   34  A    between atoms: _76  and  _79
REMARK   35  A    between atoms: _79  and  _80
REMARK   36  A    between atoms: _85  and  _87
REMARK   37  A    between atoms: _87  and  _88
REMARK   38  A    between atoms: _87  and  _90
REMARK   39  A    between atoms: _90  and  _91
REMARK   40  A    between atoms: _93  and  _95
REMARK   41  A    between atoms: _95  and  _96
REMARK   42  A    between atoms: _95  and  _98
REMARK   43  A    between atoms: _102  and  _103
REMARK   44  A    between atoms: _108  and  _110
REMARK   45  A    between atoms: _110  and  _111
REMARK   46  A    between atoms: _110  and  _113
REMARK   47  A    between atoms: _113  and  _114
REMARK   48  A    between atoms: _117  and  _119
REMARK   49  A    between atoms: _119  and  _120
REMARK   50  A    between atoms: _119  and  _122
REMARK   51  A    between atoms: _122  and  _123
REMARK   52  A    between atoms: _126  and  _128
REMARK   53  A    between atoms: _128  and  _129
REMARK   54  A    between atoms: _128  and  _131
REMARK   55  A    between atoms: _131  and  _132
REMARK   56  A    between atoms: _135  and  _137
REMARK   57  A    between atoms: _137  and  _138
REMARK   58  A    between atoms: _137  and  _140
REMARK   59  A    between atoms: _143  and  _145
REMARK   60  A    between atoms: _145  and  _146
REMARK   61  A    between atoms: _145  and  _148
REMARK   62  A    between atoms: _148  and  _149
REMARK   63  A    between atoms: _152  and  _154
REMARK   64  A    between atoms: _154  and  _155
REMARK   65  A    between atoms: _154  and  _157
REMARK   66  A    between atoms: _157  and  _158
REMARK   67  A    between atoms: _160  and  _162
REMARK   68  A    between atoms: _162  and  _163
REMARK   69  A    between atoms: _162  and  _165
REMARK   70  A    between atoms: _165  and  _166
REMARK   71  A    between atoms: _166  and  _167
REMARK   72  A    between atoms: _167  and  _168
REMARK   73  A    between atoms: _177  and  _179
REMARK   74  A    between atoms: _179  and  _180
REMARK   75  A    between atoms: _183  and  _184
REMARK   76  A    between atoms: _189  and  _191
REMARK   77  A    between atoms: _191  and  _192
REMARK   78  A    between atoms: _191  and  _194
REMARK   79  A    between atoms: _194  and  _195
REMARK   80  A    between atoms: _198  and  _200
REMARK   81  A    between atoms: _200  and  _201
REMARK   82  A    between atoms: _200  and  _203
REMARK   83  A    between atoms: _203  and  _204
REMARK   84  A    between atoms: _206  and  _208
REMARK   85  A    between atoms: _208  and  _209
REMARK   86  A    between atoms: _208  and  _211
REMARK   87  A    between atoms: _211  and  _212
REMARK   88  A    between atoms: _212  and  _213
REMARK   89  A    between atoms: _213  and  _214
REMARK   90  A    between atoms: _214  and  _215
REMARK   91  A    between atoms: _219  and  _221
REMARK   92  A    between atoms: _221  and  _222
REMARK   93  A    between atoms: _221  and  _224
REMARK   94  A    between atoms: _224  and  _225
REMARK   95  A    between atoms: _227  and  _229
REMARK   96  A    between atoms: _229  and  _230
REMARK   97  A    between atoms: _229  and  _232
REMARK   98  A    between atoms: _232  and  _233
REMARK   99  A    between atoms: _236  and  _238
REMARK  100  A    between atoms: _238  and  _239
REMARK  101  A    between atoms: _238  and  _241
REMARK  102  A    between atoms: _244  and  _246
REMARK  103  A    between atoms: _246  and  _247
REMARK  104  A    between atoms: _246  and  _249
REMARK  105  A    between atoms: _252  and  _254
REMARK  106  A    between atoms: _254  and  _255
REMARK  107  A    between atoms: _259  and  _260
REMARK  108  A    between atoms: _265  and  _267
REMARK  109  A    between atoms: _267  and  _268
REMARK  110  A    between atoms: _267  and  _270
REMARK  111  A    between atoms: _270  and  _271
REMARK  112  A    between atoms: _271  and  _272
REMARK  113  A    between atoms: _275  and  _277
REMARK  114  A    between atoms: _277  and  _278
REMARK  115  A    between atoms: _277  and  _280
REMARK  116  A    between atoms: _280  and  _281
REMARK  117  A    between atoms: _291  and  _293
REMARK  118  A    between atoms: _293  and  _294
REMARK  119  A    between atoms: _293  and  _296
REMARK  120  A    between atoms: _296  and  _297
REMARK  121  A    between atoms: _297  and  _298
REMARK  122  A    between atoms: _300  and  _302
REMARK  123  A    between atoms: _302  and  _303
REMARK  124  A    between atoms: _302  and  _305
REMARK  125  A    between atoms: _305  and  _306
REMARK  126  A    between atoms: _313  and  _314
REMARK  127  A    between atoms: _319  and  _321
REMARK  128  A    between atoms: _321  and  _322
REMARK  129  A    between atoms: _325  and  _327
REMARK  130  A    between atoms: _327  and  _328
REMARK  131  A    between atoms: _327  and  _330
REMARK  132  A    between atoms: _330  and  _331
REMARK  133  A    between atoms: _334  and  _336
REMARK  134  A    between atoms: _336  and  _337
REMARK  135  A    between atoms: _339  and  _341
REMARK  136  A    between atoms: _341  and  _342
REMARK  137  A    between atoms: _341  and  _344
REMARK  138  A    between atoms: _344  and  _345
REMARK  139  A    between atoms: _348  and  _350
REMARK  140  A    between atoms: _350  and  _351
REMARK  141  A    between atoms: _353  and  _355
REMARK  142  A    between atoms: _355  and  _356
REMARK  143  A    between atoms: _355  and  _358
REMARK  144  A    between atoms: _358  and  _359
REMARK  145  A    between atoms: _364  and  _366
REMARK  146  A    between atoms: _366  and  _367
REMARK  147  A    between atoms: _366  and  _369
REMARK  148  A    between atoms: _369  and  _370
REMARK  149  A    between atoms: _373  and  _375
REMARK  150  A    between atoms: _375  and  _376
REMARK  151  A    between atoms: _378  and  _380
REMARK  152  A    between atoms: _380  and  _381
REMARK  153  A    between atoms: _380  and  _383
REMARK  154  A    between atoms: _383  and  _384
REMARK  155  A    between atoms: _390  and  _392
REMARK  156  A    between atoms: _392  and  _393
REMARK  157  A    between atoms: _392  and  _395
REMARK  158  A    between atoms: _395  and  _396
REMARK  159  A    between atoms: _396  and  _397
REMARK  160  A    between atoms: _397  and  _398
REMARK  161  A    between atoms: _398  and  _399
REMARK  162  A    between atoms: _403  and  _405
REMARK  163  A    between atoms: _405  and  _406
REMARK  164  A    between atoms: _405  and  _408
REMARK  165  A    between atoms: _408  and  _409
REMARK  166  A    between atoms: _415  and  _417
REMARK  167  A    between atoms: _417  and  _418
REMARK  168  A    between atoms: _417  and  _420
REMARK  169  A    between atoms: _420  and  _421
REMARK  170  A    between atoms: _424  and  _426
REMARK  171  A    between atoms: _426  and  _427
REMARK  172  A    between atoms: _426  and  _429
REMARK  173  A    between atoms: _429  and  _430
REMARK  174  A    between atoms: _433  and  _435
REMARK  175  A    between atoms: _435  and  _436
REMARK  176  A    between atoms: _435  and  _438
REMARK  177  A    between atoms: _438  and  _439
REMARK  178  A    between atoms: _445  and  _446
REMARK  179  A    between atoms: _451  and  _453
REMARK  180  A    between atoms: _453  and  _454
REMARK  181  A    between atoms: _453  and  _456
REMARK  182  A    between atoms: _456  and  _457
REMARK  183  A    between atoms: _459  and  _461
REMARK  184  A    between atoms: _461  and  _462
REMARK  185  A    between atoms: _461  and  _464
REMARK  186  A    between atoms: _464  and  _465
REMARK  187  A    between atoms: _468  and  _470
REMARK  188  A    between atoms: _470  and  _471
REMARK  189  A    between atoms: _470  and  _473
REMARK  190  A    between atoms: _473  and  _474
REMARK  191  A    between atoms: _479  and  _481
REMARK  192  A    between atoms: _481  and  _482
REMARK  193  A    between atoms: _481  and  _484
REMARK  194  A    between atoms: _484  and  _485
REMARK  195  A    between atoms: _485  and  _486
REMARK  196  A    between atoms: _489  and  _491
REMARK  197  A    between atoms: _491  and  _492
REMARK  198  A    between atoms: _491  and  _494
REMARK  199  A    between atoms: _494  and  _495
REMARK  200  A    between atoms: _500  and  _502
REMARK  201  A    between atoms: _502  and  _503
REMARK  202  A    between atoms: _502  and  _505
REMARK  203  A    between atoms: _505  and  _506
REMARK  204  A    between atoms: _509  and  _511
REMARK  205  A    between atoms: _511  and  _512
REMARK  206  A    between atoms: _511  and  _514
REMARK  207  A    between atoms: _514  and  _515
REMARK                            x       y       z     vdW  Elec       q    Type
REMARK                         _______ _______ _______ _____ _____    ______ ____
ROOT
ATOM      1  C   GLY A   4     -27.700   4.499 -27.728  0.00  0.00    +0.243 C 
ATOM      2  N   VAL A   5     -27.991   5.792 -27.605  0.00  0.00    -0.297 N 
ATOM      3  H   VAL A   5     -27.294   6.415 -27.149  0.00  0.00    +0.150 HD
ATOM      4  O   GLY A   4     -28.478   3.672 -28.206  0.00  0.00    -0.273 OA
ENDROOT
BRANCH   1   5
ATOM      5  CA  GLY A   4     -26.335   4.081 -27.225  0.00  0.00    +0.176 C 
BRANCH   5   8
ATOM      6  C   GLU A   3     -27.076   2.740 -25.351  0.00  0.00    +0.241 C 
ATOM      7  O   GLU A   3     -27.463   3.727 -24.719  0.00  0.00    -0.273 OA
ATOM      8  N   GLY A   4     -26.457   2.815 -26.519  0.00  0.00    -0.295 N 
ATOM      9  H   GLY A   4     -26.051   1.954 -26.939  0.00  0.00    +0.150 HD
BRANCH   6  10
ATOM     10  CA  GLU A   3     -27.280   1.341 -24.823  0.00  0.00    +0.149 C 
BRANCH  10  13
ATOM     11  C   LYS A   2     -27.545   0.244 -22.669  0.00  0.00    +0.241 C 
ATOM     12  O   LYS A   2     -27.420  -0.864 -23.174  0.00  0.00    -0.273 OA
ATOM     13  N   GLU A   3     -27.523   1.358 -23.384  0.00  0.00    -0.297 N 
ATOM     14  H   GLU A   3     -27.683   2.269 -22.908  0.00  0.00    +0.150 HD
BRANCH  11  15
ATOM     15  CA  LYS A   2     -27.792   0.397 -21.176  0.00  0.00    +0.149 C 
BRANCH  15  18
ATOM     16  C   VAL A   1     -30.117   0.988 -20.676  0.00  0.00    +0.238 C 
ATOM     17  O   VAL A   1     -29.877   2.203 -20.575  0.00  0.00    -0.274 OA
ATOM     18  N   LYS A   2     -29.187   0.072 -20.934  0.00  0.00    -0.297 N 
ATOM     19  H   LYS A   2     -29.473  -0.927 -20.964  0.00  0.00    +0.150 HD
BRANCH  16  20
ATOM     20  CA  VAL A   1     -31.530   0.454 -20.483  0.00  0.00    +0.145 C 
BRANCH  20  21
ATOM     21  CB  VAL A   1     -32.371   0.740 -21.747  0.00  0.00    +0.025 C 
ATOM     22  CG2 VAL A   1     -33.804   0.274 -21.547  0.00  0.00    +0.002 C 
ATOM     23  CG1 VAL A   1     -31.778   0.062 -22.958  0.00  0.00    +0.002 C 
ENDBRANCH  20  21
BRANCH  20  24
ATOM     24  N   VAL A   1     -32.134   1.048 -19.287  0.00  0.00    -0.238 NA
ATOM     25  H   VAL A   1     -32.179   2.084 -19.211  0.00  0.00    +0.142 HD
ENDBRANCH  20  24
ENDBRANCH  16  20
ENDBRANCH  15  18
BRANCH  15  26
ATOM     26  CB  LYS A   2     -26.894  -0.551 -20.379  0.00  0.00    +0.029 C 
BRANCH  26  27
ATOM     27  CG  LYS A   2     -25.408  -0.238 -20.452  0.00  0.00    +0.000 C 
BRANCH  27  28
ATOM     28  CD  LYS A   2     -24.551  -1.507 -20.280  0.00  0.00    -0.024 C 
BRANCH  28  29
ATOM     29  CE  LYS A   2     -23.816  -1.595 -18.954  0.00  0.00    -0.086 C 
BRANCH  29  30
ATOM     30  NZ  LYS A   2     -22.345  -1.316 -19.094  0.00  0.00    +0.380 N 
ATOM     31  HZ1 LYS A   2     -21.889  -1.388 -18.162  0.00  0.00    -0.089 HD
ATOM     32  HZ2 LYS A   2     -22.210  -0.357 -19.474  0.00  0.00    -0.089 HD
ATOM     33  HZ3 LYS A   2     -21.922  -2.010 -19.743  0.00  0.00    -0.089 HD
ENDBRANCH  29  30
ENDBRANCH  28  29
ENDBRANCH  27  28
ENDBRANCH  26  27
ENDBRANCH  15  26
ENDBRANCH  11  15
ENDBRANCH  10  13
BRANCH  10  34
ATOM     34  CB  GLU A   3     -28.419   0.667 -25.608  0.00  0.00    +0.041 C 
BRANCH  34  35
ATOM     35  CG  GLU A   3     -29.745   1.412 -25.621  0.00  0.00    +0.116 C 
BRANCH  35  36
ATOM     36  CD  GLU A   3     -30.844   0.670 -26.379  0.00  0.00    +0.365 C 
ATOM     37  OE2 GLU A   3     -31.984   1.184 -26.445  0.00  0.00    -0.246 OA
ATOM     38  OE1 GLU A   3     -30.585  -0.436 -26.898  0.00  0.00    -0.246 OA
ENDBRANCH  35  36
ENDBRANCH  34  35
ENDBRANCH  10  34
ENDBRANCH   6  10
ENDBRANCH   5   8
ENDBRANCH   1   5
BRANCH   2  39
ATOM     39  CA  VAL A   5     -29.248   6.382 -28.082  0.00  0.00    +0.149 C 
BRANCH  39  40
ATOM     40  C   VAL A   5     -29.469   6.051 -29.554  0.00  0.00    +0.241 C 
ATOM     41  O   VAL A   5     -30.605   5.909 -30.006  0.00  0.00    -0.273 OA
ATOM     42  N   GLN A   6     -28.371   5.917 -30.289  0.00  0.00    -0.297 N 
ATOM     43  H   GLN A   6     -27.445   6.093 -29.849  0.00  0.00    +0.150 HD
BRANCH  42  44
ATOM     44  CA  GLN A   6     -28.423   5.529 -31.701  0.00  0.00    +0.149 C 
BRANCH  44  45
ATOM     45  C   GLN A   6     -29.065   4.168 -31.954  0.00  0.00    +0.241 C 
ATOM     46  N   ASN A   7     -29.148   3.328 -30.924  0.00  0.00    -0.297 N 
ATOM     47  H   ASN A   7     -28.788   3.629 -29.996  0.00  0.00    +0.150 HD
ATOM     48  O   GLN A   6     -29.446   3.877 -33.077  0.00  0.00    -0.273 OA
BRANCH  46  49
ATOM     49  CA  ASN A   7     -29.730   1.996 -31.061  0.00  0.00    +0.158 C 
BRANCH  49  50
ATOM     50  C   ASN A   7     -31.130   1.883 -30.429  0.00  0.00    +0.241 C 
ATOM     51  N   ALA A   8     -31.697   3.010 -29.986  0.00  0.00    -0.298 N 
ATOM     52  H   ALA A   8     -31.168   3.903 -30.053  0.00  0.00    +0.150 HD
ATOM     53  O   ASN A   7     -31.687   0.791 -30.365  0.00  0.00    -0.273 OA
BRANCH  51  54
ATOM     54  CA  ALA A   8     -33.051   3.022 -29.405  0.00  0.00    +0.137 C 
ATOM     55  CB  ALA A   8     -33.425   4.427 -28.974  0.00  0.00    +0.030 C 
BRANCH  54  56
ATOM     56  C   ALA A   8     -34.091   2.505 -30.388  0.00  0.00    +0.227 C 
ATOM     57  O   ALA A   8     -34.065   2.865 -31.563  0.00  0.00    -0.286 OA
ENDBRANCH  54  56
ENDBRANCH  51  54
ENDBRANCH  49  50
BRANCH  49  58
ATOM     58  CB  ASN A   7     -28.766   0.967 -30.457  0.00  0.00    +0.114 C 
BRANCH  58  59
ATOM     59  CG  ASN A   7     -27.436   0.911 -31.210  0.00  0.00    +0.222 C 
ATOM     60  ND2 ASN A   7     -26.324   0.968 -30.479  0.00  0.00    -0.329 N 
ATOM     61 HD21 ASN A   7     -26.386   1.045 -29.444  0.00  0.00    +0.145 HD
ATOM     62 HD22 ASN A   7     -25.394   0.935 -30.944  0.00  0.00    +0.145 HD
ATOM     63  OD1 ASN A   7     -27.417   0.819 -32.438  0.00  0.00    -0.275 OA
ENDBRANCH  58  59
ENDBRANCH  49  58
ENDBRANCH  46  49
ENDBRANCH  44  45
BRANCH  44  64
ATOM     64  CB  GLN A   6     -27.017   5.532 -32.319  0.00  0.00    +0.039 C 
BRANCH  64  65
ATOM     65  CG  GLN A   6     -26.008   4.583 -31.660  0.00  0.00    +0.087 C 
BRANCH  65  66
ATOM     66  CD  GLN A   6     -25.147   5.278 -30.620  0.00  0.00    +0.219 C 
ATOM     67  OE1 GLN A   6     -25.645   6.031 -29.781  0.00  0.00    -0.275 OA
ATOM     68  NE2 GLN A   6     -23.851   5.027 -30.672  0.00  0.00    -0.329 N 
ATOM     69 HE21 GLN A   6     -23.207   5.472 -29.987  0.00  0.00    +0.145 HD
ATOM     70 HE22 GLN A   6     -23.475   4.384 -31.398  0.00  0.00    +0.145 HD
ENDBRANCH  65  66
ENDBRANCH  64  65
ENDBRANCH  44  64
ENDBRANCH  42  44
ENDBRANCH  39  40
BRANCH  39  71
ATOM     71  CB  VAL A   5     -29.237   7.915 -27.902  0.00  0.00    +0.027 C 
ATOM     72  CG2 VAL A   5     -30.594   8.495 -28.194  0.00  0.00    +0.002 C 
ATOM     73  CG1 VAL A   5     -28.155   8.555 -28.805  0.00  0.00    +0.002 C 
ENDBRANCH  39  71
ENDBRANCH   2  39
TORSDOF 31
REMARK  Name = ../refined-set-2016/3q71/3q71_pocket.pdb
REMARK  207 active torsions:
REMARK  status: ('A' for Active; 'I' for Inactive)
REMARK    1  A    between atoms: _1  and  _3
REMARK    2  A    between atoms: _3  and  _4
REMARK    3  A    between atoms: _3  and  _6
REMARK    4  A    between atoms: _9  and  _11
REMARK    5  A    between atoms: _11  and  _12
REMARK    6  A    between atoms: _11  and  _14
REMARK    7  A    between atoms: _14  and  _15
REMARK    8  A    between atoms: _15  and  _16
REMARK    9  A    between atoms: _16  and  _17
REMARK   10  A    between atoms: _17  and  _18
REMARK   11  A    between atoms: _22  and  _24
REMARK   12  A    between atoms: _24  and  _25
REMARK   13  A    between atoms: _24  and  _27
REMARK   14  A    between atoms: _27  and  _28
REMARK   15  A    between atoms: _28  and  _29
REMARK   16  A    between atoms: _32  and  _34
REMARK   17  A    between atoms: _34  and  _35
REMARK   18  A    between atoms: _37  and  _39
REMARK   19  A    between atoms: _39  and  _40
REMARK   20  A    between atoms: _39  and  _42
REMARK   21  A    between atoms: _45  and  _47
REMARK   22  A    between atoms: _47  and  _48
REMARK   23  A    between atoms: _47  and  _50
REMARK   24  A    between atoms: _50  and  _51
REMARK   25  A    between atoms: _51  and  _52
REMARK   26  A    between atoms: _57  and  _59
REMARK   27  A    between atoms: _59  and  _60
REMARK   28  A    between atoms: _59  and  _62
REMARK   29  A    between atoms: _62  and  _63
REMARK   30  A    between atoms: _68  and  _70
REMARK   31  A    between atoms: _70  and  _71
REMARK   32  A    between atoms: _74  and  _76
REMARK   33  A    between atoms: _76  and  _77
REMARK   34  A    between atoms: _76  and  _79
REMARK   35  A    between atoms: _79  and  _80
REMARK   36  A    between atoms: _85  and  _87
REMARK   37  A    between atoms: _87  and  _88
REMARK   38  A    between atoms: _87  and  _90
REMARK   39  A    between atoms: _90  and  _91
REMARK   40  A    between atoms: _93  and  _95
REMARK   41  A    between atoms: _95  and  _96
REMARK   42  A    between atoms: _95  and  _98
REMARK   43  A    between atoms: _102  and  _103
REMARK   44  A    between atoms: _108  and  _110
REMARK   45  A    between atoms: _110  and  _111
REMARK   46  A    between atoms: _110  and  _113
REMARK   47  A    between atoms: _113  and  _114
REMARK   48  A    between atoms: _117  and  _119
REMARK   49  A    between atoms: _119  and  _120
REMARK   50  A    between atoms: _119  and  _122
REMARK   51  A    between atoms: _122  and  _123
REMARK   52  A    between atoms: _126  and  _128
REMARK   53  A    between atoms: _128  and  _129
REMARK   54  A    between atoms: _128  and  _131
REMARK   55  A    between atoms: _131  and  _132
REMARK   56  A    between atoms: _135  and  _137
REMARK   57  A    between atoms: _137  and  _138
REMARK   58  A    between atoms: _137  and  _140
REMARK   59  A    between atoms: _143  and  _145
REMARK   60  A    between atoms: _145  and  _146
REMARK   61  A    between atoms: _145  and  _148
REMARK   62  A    between atoms: _148  and  _149
REMARK   63  A    between atoms: _152  and  _154
REMARK   64  A    between atoms: _154  and  _155
REMARK   65  A    between atoms: _154  and  _157
REMARK   66  A    between atoms: _157  and  _158
REMARK   67  A    between atoms: _160  and  _162
REMARK   68  A    between atoms: _162  and  _163
REMARK   69  A    between atoms: _162  and  _165
REMARK   70  A    between atoms: _165  and  _166
REMARK   71  A    between atoms: _166  and  _167
REMARK   72  A    between atoms: _167  and  _168
REMARK   73  A    between atoms: _177  and  _179
REMARK   74  A    between atoms: _179  and  _180
REMARK   75  A    between atoms: _183  and  _184
REMARK   76  A    between atoms: _189  and  _191
REMARK   77  A    between atoms: _191  and  _192
REMARK   78  A    between atoms: _191  and  _194
REMARK   79  A    between atoms: _194  and  _195
REMARK   80  A    between atoms: _198  and  _200
REMARK   81  A    between atoms: _200  and  _201
REMARK   82  A    between atoms: _200  and  _203
REMARK   83  A    between atoms: _203  and  _204
REMARK   84  A    between atoms: _206  and  _208
REMARK   85  A    between atoms: _208  and  _209
REMARK   86  A    between atoms: _208  and  _211
REMARK   87  A    between atoms: _211  and  _212
REMARK   88  A    between atoms: _212  and  _213
REMARK   89  A    between atoms: _213  and  _214
REMARK   90  A    between atoms: _214  and  _215
REMARK   91  A    between atoms: _219  and  _221
REMARK   92  A    between atoms: _221  and  _222
REMARK   93  A    between atoms: _221  and  _224
REMARK   94  A    between atoms: _224  and  _225
REMARK   95  A    between atoms: _227  and  _229
REMARK   96  A    between atoms: _229  and  _230
REMARK   97  A    between atoms: _229  and  _232
REMARK   98  A    between atoms: _232  and  _233
REMARK   99  A    between atoms: _236  and  _238
REMARK  100  A    between atoms: _238  and  _239
REMARK  101  A    between atoms: _238  and  _241
REMARK  102  A    between atoms: _244  and  _246
REMARK  103  A    between atoms: _246  and  _247
REMARK  104  A    between atoms: _246  and  _249
REMARK  105  A    between atoms: _252  and  _254
REMARK  106  A    between atoms: _254  and  _255
REMARK  107  A    between atoms: _259  and  _260
REMARK  108  A    between atoms: _265  and  _267
REMARK  109  A    between atoms: _267  and  _268
REMARK  110  A    between atoms: _267  and  _270
REMARK  111  A    between atoms: _270  and  _271
REMARK  112  A    between atoms: _271  and  _272
REMARK  113  A    between atoms: _275  and  _277
REMARK  114  A    between atoms: _277  and  _278
REMARK  115  A    between atoms: _277  and  _280
REMARK  116  A    between atoms: _280  and  _281
REMARK  117  A    between atoms: _291  and  _293
REMARK  118  A    between atoms: _293  and  _294
REMARK  119  A    between atoms: _293  and  _296
REMARK  120  A    between atoms: _296  and  _297
REMARK  121  A    between atoms: _297  and  _298
REMARK  122  A    between atoms: _300  and  _302
REMARK  123  A    between atoms: _302  and  _303
REMARK  124  A    between atoms: _302  and  _305
REMARK  125  A    between atoms: _305  and  _306
REMARK  126  A    between atoms: _313  and  _314
REMARK  127  A    between atoms: _319  and  _321
REMARK  128  A    between atoms: _321  and  _322
REMARK  129  A    between atoms: _325  and  _327
REMARK  130  A    between atoms: _327  and  _328
REMARK  131  A    between atoms: _327  and  _330
REMARK  132  A    between atoms: _330  and  _331
REMARK  133  A    between atoms: _334  and  _336
REMARK  134  A    between atoms: _336  and  _337
REMARK  135  A    between atoms: _339  and  _341
REMARK  136  A    between atoms: _341  and  _342
REMARK  137  A    between atoms: _341  and  _344
REMARK  138  A    between atoms: _344  and  _345
REMARK  139  A    between atoms: _348  and  _350
REMARK  140  A    between atoms: _350  and  _351
REMARK  141  A    between atoms: _353  and  _355
REMARK  142  A    between atoms: _355  and  _356
REMARK  143  A    between atoms: _355  and  _358
REMARK  144  A    between atoms: _358  and  _359
REMARK  145  A    between atoms: _364  and  _366
REMARK  146  A    between atoms: _366  and  _367
REMARK  147  A    between atoms: _366  and  _369
REMARK  148  A    between atoms: _369  and  _370
REMARK  149  A    between atoms: _373  and  _375
REMARK  150  A    between atoms: _375  and  _376
REMARK  151  A    between atoms: _378  and  _380
REMARK  152  A    between atoms: _380  and  _381
REMARK  153  A    between atoms: _380  and  _383
REMARK  154  A    between atoms: _383  and  _384
REMARK  155  A    between atoms: _390  and  _392
REMARK  156  A    between atoms: _392  and  _393
REMARK  157  A    between atoms: _392  and  _395
REMARK  158  A    between atoms: _395  and  _396
REMARK  159  A    between atoms: _396  and  _397
REMARK  160  A    between atoms: _397  and  _398
REMARK  161  A    between atoms: _398  and  _399
REMARK  162  A    between atoms: _403  and  _405
REMARK  163  A    between atoms: _405  and  _406
REMARK  164  A    between atoms: _405  and  _408
REMARK  165  A    between atoms: _408  and  _409
REMARK  166  A    between atoms: _415  and  _417
REMARK  167  A    between atoms: _417  and  _418
REMARK  168  A    between atoms: _417  and  _420
REMARK  169  A    between atoms: _420  and  _421
REMARK  170  A    between atoms: _424  and  _426
REMARK  171  A    between atoms: _426  and  _427
REMARK  172  A    between atoms: _426  and  _429
REMARK  173  A    between atoms: _429  and  _430
REMARK  174  A    between atoms: _433  and  _435
REMARK  175  A    between atoms: _435  and  _436
REMARK  176  A    between atoms: _435  and  _438
REMARK  177  A    between atoms: _438  and  _439
REMARK  178  A    between atoms: _445  and  _446
REMARK  179  A    between atoms: _451  and  _453
REMARK  180  A    between atoms: _453  and  _454
REMARK  181  A    between atoms: _453  and  _456
REMARK  182  A    between atoms: _456  and  _457
REMARK  183  A    between atoms: _459  and  _461
REMARK  184  A    between atoms: _461  and  _462
REMARK  185  A    between atoms: _461  and  _464
REMARK  186  A    between atoms: _464  and  _465
REMARK  187  A    between atoms: _468  and  _470
REMARK  188  A    between atoms: _470  and  _471
REMARK  189  A    between atoms: _470  and  _473
REMARK  190  A    between atoms: _473  and  _474
REMARK  191  A    between atoms: _479  and  _481
REMARK  192  A    between atoms: _481  and  _482
REMARK  193  A    between atoms: _481  and  _484
REMARK  194  A    between atoms: _484  and  _485
REMARK  195  A    between atoms: _485  and  _486
REMARK  196  A    between atoms: _489  and  _491
REMARK  197  A    between atoms: _491  and  _492
REMARK  198  A    between atoms: _491  and  _494
REMARK  199  A    between atoms: _494  and  _495
REMARK  200  A    between atoms: _500  and  _502
REMARK  201  A    between atoms: _502  and  _503
REMARK  202  A    between atoms: _502  and  _505
REMARK  203  A    between atoms: _505  and  _506
REMARK  204  A    between atoms: _509  and  _511
REMARK  205  A    between atoms: _511  and  _512
REMARK  206  A    between atoms: _511  and  _514
REMARK  207  A    between atoms: _514  and  _515
REMARK                            x       y       z     vdW  Elec       q    Type
REMARK                         _______ _______ _______ _____ _____    ______ ____
ROOT
ATOM      1  CA  SER A  10     -23.041  18.170 -34.262  0.00  0.00    +0.178 C 
ENDROOT
BRANCH   1   2
ATOM      2  C   SER A  10     -22.202  18.755 -33.122  0.00  0.00    +0.243 C 
ATOM      3  N   ARG A  11     -22.803  19.491 -32.194  0.00  0.00    -0.297 N 
ATOM      4  H   ARG A  11     -23.837  19.606 -32.201  0.00  0.00    +0.150 HD
ATOM      5  O   SER A  10     -21.004  18.534 -33.081  0.00  0.00    -0.273 OA
BRANCH   3   6
ATOM      6  CA  ARG A  11     -21.990  20.140 -31.159  0.00  0.00    +0.149 C 
BRANCH   6   7
ATOM      7  C   ARG A  11     -21.809  19.347 -29.877  0.00  0.00    +0.241 C 
ATOM      8  O   ARG A  11     -20.732  19.382 -29.298  0.00  0.00    -0.273 OA
ATOM      9  N   GLY A  12     -22.851  18.651 -29.423  0.00  0.00    -0.295 N 
ATOM     10  H   GLY A  12     -23.751  18.700 -29.943  0.00  0.00    +0.150 HD
BRANCH   9  11
ATOM     11  CA  GLY A  12     -22.777  17.824 -28.226  0.00  0.00    +0.176 C 
BRANCH  11  12
ATOM     12  C   GLY A  12     -22.695  16.340 -28.541  0.00  0.00    +0.246 C 
ATOM     13  N   PRO A  13     -22.066  15.555 -27.658  0.00  0.00    -0.272 N 
ATOM     14  CD  PRO A  13     -21.434  15.966 -26.395  0.00  0.00    +0.094 C 
ATOM     15  CG  PRO A  13     -21.194  14.691 -25.692  0.00  0.00    +0.024 C 
ATOM     16  CB  PRO A  13     -21.102  13.618 -26.718  0.00  0.00    +0.031 C 
ATOM     17  CA  PRO A  13     -21.888  14.132 -27.932  0.00  0.00    +0.152 C 
ATOM     18  O   GLY A  12     -23.206  15.890 -29.562  0.00  0.00    -0.273 OA
BRANCH  17  19
ATOM     19  C   PRO A  13     -23.178  13.332 -28.124  0.00  0.00    +0.241 C 
ATOM     20  N   LEU A  14     -24.227  13.627 -27.372  0.00  0.00    -0.297 N 
ATOM     21  H   LEU A  14     -24.153  14.387 -26.666  0.00  0.00    +0.150 HD
ATOM     22  O   PRO A  13     -23.207  12.446 -28.973  0.00  0.00    -0.273 OA
BRANCH  20  23
ATOM     23  CA  LEU A  14     -25.488  12.900 -27.518  0.00  0.00    +0.149 C 
BRANCH  23  24
ATOM     24  C   LEU A  14     -26.065  13.132 -28.900  0.00  0.00    +0.241 C 
ATOM     25  N   SER A  15     -26.256  14.398 -29.242  0.00  0.00    -0.295 N 
ATOM     26  H   SER A  15     -25.962  15.147 -28.582  0.00  0.00    +0.150 HD
ATOM     27  O   LEU A  14     -26.321  12.187 -29.638  0.00  0.00    -0.273 OA
BRANCH  25  28
ATOM     28  CA  SER A  15     -26.860  14.774 -30.504  0.00  0.00    +0.178 C 
BRANCH  28  29
ATOM     29  C   SER A  15     -26.013  14.320 -31.678  0.00  0.00    +0.243 C 
ATOM     30  N   LYS A  16     -24.700  14.398 -31.515  0.00  0.00    -0.297 N 
ATOM     31  H   LYS A  16     -24.318  14.749 -30.613  0.00  0.00    +0.150 HD
ATOM     32  O   SER A  15     -26.534  13.891 -32.700  0.00  0.00    -0.273 OA
BRANCH  30  33
ATOM     33  CA  LYS A  16     -23.788  14.005 -32.566  0.00  0.00    +0.149 C 
BRANCH  33  34
ATOM     34  C   LYS A  16     -23.919  12.500 -32.821  0.00  0.00    +0.241 C 
ATOM     35  N   SER A  17     -24.037  11.698 -31.755  0.00  0.00    -0.295 N 
ATOM     36  H   SER A  17     -23.922  12.101 -30.803  0.00  0.00    +0.150 HD
ATOM     37  O   LYS A  16     -23.947  12.090 -33.966  0.00  0.00    -0.273 OA
BRANCH  35  38
ATOM     38  CA  SER A  17     -24.325  10.262 -31.893  0.00  0.00    +0.178 C 
BRANCH  38  39
ATOM     39  C   SER A  17     -25.608  10.045 -32.696  0.00  0.00    +0.243 C 
ATOM     40  N   LEU A  18     -26.643  10.836 -32.410  0.00  0.00    -0.298 N 
ATOM     41  H   LEU A  18     -26.553  11.561 -31.670  0.00  0.00    +0.150 HD
ATOM     42  O   SER A  17     -25.656   9.169 -33.571  0.00  0.00    -0.273 OA
BRANCH  40  43
ATOM     43  CA  LEU A  18     -27.901  10.687 -33.132  0.00  0.00    +0.137 C 
BRANCH  43  44
ATOM     44  C   LEU A  18     -27.749  11.083 -34.592  0.00  0.00    +0.227 C 
ATOM     45  O   LEU A  18     -28.303  10.412 -35.472  0.00  0.00    -0.286 OA
ENDBRANCH  43  44
BRANCH  43  46
ATOM     46  CB  LEU A  18     -29.045  11.485 -32.501  0.00  0.00    +0.028 C 
BRANCH  46  47
ATOM     47  CG  LEU A  18     -29.922  10.772 -31.470  0.00  0.00    +0.002 C 
ATOM     48  CD2 LEU A  18     -30.956  11.749 -30.898  0.00  0.00    +0.000 C 
ATOM     49  CD1 LEU A  18     -30.617   9.553 -32.042  0.00  0.00    +0.000 C 
ENDBRANCH  46  47
ENDBRANCH  43  46
ENDBRANCH  40  43
ENDBRANCH  38  39
BRANCH  38  50
ATOM     50  CB  SER A  17     -24.465   9.557 -30.530  0.00  0.00    +0.166 C 
BRANCH  50  51
ATOM     51  OG  SER A  17     -23.265   9.595 -29.771  0.00  0.00    -0.380 OA
ATOM     52  H   SER A  17     -23.012  10.537 -29.602  0.00  0.00    +0.211 HD
ENDBRANCH  50  51
ENDBRANCH  38  50
ENDBRANCH  35  38
ENDBRANCH  33  34
BRANCH  33  53
ATOM     53  CB  LYS A  16     -22.360  14.420 -32.185  0.00  0.00    +0.029 C 
BRANCH  53  54
ATOM     54  CG  LYS A  16     -21.297  14.291 -33.271  0.00  0.00    +0.000 C 
BRANCH  54  55
ATOM     55  CD  LYS A  16     -19.962  14.813 -32.716  0.00  0.00    -0.024 C 
BRANCH  55  56
ATOM     56  CE  LYS A  16     -18.759  14.426 -33.577  0.00  0.00    -0.086 C 
BRANCH  56  57
ATOM     57  NZ  LYS A  16     -18.460  15.442 -34.602  0.00  0.00    +0.380 N 
ATOM     58  HZ1 LYS A  16     -18.249  16.349 -34.138  0.00  0.00    -0.089 HD
ATOM     59  HZ2 LYS A  16     -17.638  15.137 -35.161  0.00  0.00    -0.089 HD
ATOM     60  HZ3 LYS A  16     -19.283  15.555 -35.227  0.00  0.00    -0.089 HD
ENDBRANCH  56  57
ENDBRANCH  55  56
ENDBRANCH  54  55
ENDBRANCH  53  54
ENDBRANCH  33  53
ENDBRANCH  30  33
ENDBRANCH  28  29
BRANCH  28  61
ATOM     61  CB  SER A  15     -27.055  16.283 -30.567  0.00  0.00    +0.166 C 
BRANCH  61  62
ATOM     62  OG  SER A  15     -27.806  16.610 -31.700  0.00  0.00    -0.380 OA
ATOM     63  H   SER A  15     -27.327  16.305 -32.511  0.00  0.00    +0.211 HD
ENDBRANCH  61  62
ENDBRANCH  28  61
ENDBRANCH  25  28
ENDBRANCH  23  24
BRANCH  23  64
ATOM     64  CB  LEU A  14     -26.510  13.328 -26.452  0.00  0.00    +0.029 C 
BRANCH  64  65
ATOM     65  CG  LEU A  14     -27.902  12.674 -26.447  0.00  0.00    +0.002 C 
ATOM     66  CD2 LEU A  14     -28.847  13.403 -25.472  0.00  0.00    +0.000 C 
ATOM     67  CD1 LEU A  14     -27.801  11.198 -26.106  0.00  0.00    +0.000 C 
ENDBRANCH  64  65
ENDBRANCH  23  64
ENDBRANCH  20  23
ENDBRANCH  17  19
ENDBRANCH  11  12
ENDBRANCH   9  11
ENDBRANCH   6   7
BRANCH   6  68
ATOM     68  CB  ARG A  11     -22.525  21.526 -30.834  0.00  0.00    +0.033 C 
BRANCH  68  69
ATOM     69  CG  ARG A  11     -21.527  22.386 -30.066  0.00  0.00    +0.045 C 
BRANCH  69  70
ATOM     70  CD  ARG A  11     -21.550  23.833 -30.553  0.00  0.00    +0.174 C 
BRANCH  70  71
ATOM     71  NE  ARG A  11     -22.880  24.424 -30.393  0.00  0.00    -0.265 N 
ATOM     72  HE  ARG A  11     -23.311  24.371 -29.448  0.00  0.00    +0.259 HD
ATOM     73  CZ  ARG A  11     -23.589  25.024 -31.350  0.00  0.00    +0.342 C 
ATOM     74  NH2 ARG A  11     -24.792  25.506 -31.067  0.00  0.00    -0.292 N 
ATOM     75 HH21 ARG A  11     -25.176  25.415 -30.105  0.00  0.00    +0.255 HD
ATOM     76 HH22 ARG A  11     -25.352  25.975 -31.807  0.00  0.00    +0.255 HD
ATOM     77  NH1 ARG A  11     -23.122  25.151 -32.578  0.00  0.00    -0.292 N 
ATOM     78 HH11 ARG A  11     -22.181  24.779 -32.818  0.00  0.00    +0.255 HD
ATOM     79 HH12 ARG A  11     -23.695  25.623 -33.306  0.00  0.00    +0.255 HD
ENDBRANCH  70  71
ENDBRANCH  69  70
ENDBRANCH  68  69
ENDBRANCH   6  68
ENDBRANCH   3   6
ENDBRANCH   1   2
BRANCH   1  82
ATOM     80  C   LEU A   9     -25.432  18.090 -33.858  0.00  0.00    +0.241 C 
ATOM     81  O   LEU A   9     -25.321  17.047 -33.212  0.00  0.00    -0.273 OA
ATOM     82  N   SER A  10     -24.384  18.738 -34.345  0.00  0.00    -0.295 N 
ATOM     83  H   SER A  10     -24.520  19.666 -34.794  0.00  0.00    +0.150 HD
BRANCH  80  84
ATOM     84  CA  LEU A   9     -26.809  18.704 -34.107  0.00  0.00    +0.149 C 
BRANCH  84  87
ATOM     85  C   VAL A   8     -26.676  21.151 -34.047  0.00  0.00    +0.241 C 
ATOM     86  O   VAL A   8     -26.461  21.154 -32.839  0.00  0.00    -0.273 OA
ATOM     87  N   LEU A   9     -26.784  20.025 -34.752  0.00  0.00    -0.297 N 
ATOM     88  H   LEU A   9     -26.853  20.082 -35.788  0.00  0.00    +0.150 HD
BRANCH  85  89
ATOM     89  CA  VAL A   8     -26.837  22.477 -34.827  0.00  0.00    +0.149 C 
BRANCH  89  91
ATOM     90  C   LEU A   7     -29.218  22.841 -34.455  0.00  0.00    +0.241 C 
ATOM     91  N   VAL A   8     -27.958  23.230 -34.278  0.00  0.00    -0.297 N 
ATOM     92  H   VAL A   8     -27.768  24.095 -33.733  0.00  0.00    +0.150 HD
ATOM     93  O   LEU A   7     -29.525  21.879 -35.149  0.00  0.00    -0.273 OA
BRANCH  90  94
ATOM     94  CA  LEU A   7     -30.311  23.622 -33.731  0.00  0.00    +0.149 C 
BRANCH  94  96
ATOM     95  C   ASP A   6     -29.529  25.963 -33.910  0.00  0.00    +0.241 C 
ATOM     96  N   LEU A   7     -29.890  24.917 -33.164  0.00  0.00    -0.297 N 
ATOM     97  H   LEU A   7     -29.874  25.020 -32.129  0.00  0.00    +0.150 HD
ATOM     98  O   ASP A   6     -29.396  25.884 -35.127  0.00  0.00    -0.273 OA
BRANCH  95  99
ATOM     99  CA  ASP A   6     -29.287  27.314 -33.177  0.00  0.00    +0.160 C 
BRANCH  99 101
ATOM    100  C   LEU A   5     -30.743  27.276 -31.232  0.00  0.00    +0.241 C 
ATOM    101  N   ASP A   6     -29.515  27.238 -31.735  0.00  0.00    -0.297 N 
ATOM    102  H   ASP A   6     -28.702  27.153 -31.092  0.00  0.00    +0.150 HD
ATOM    103  O   LEU A   5     -31.752  27.355 -31.932  0.00  0.00    -0.273 OA
BRANCH 100 104
ATOM    104  CA  LEU A   5     -30.876  27.217 -29.714  0.00  0.00    +0.149 C 
BRANCH 104 106
ATOM    105  C   PRO A   4     -29.885  24.991 -29.440  0.00  0.00    +0.241 C 
ATOM    106  N   LEU A   5     -29.948  26.265 -29.081  0.00  0.00    -0.297 N 
ATOM    107  H   LEU A   5     -29.320  26.605 -28.325  0.00  0.00    +0.150 HD
ATOM    108  O   PRO A   4     -30.611  24.488 -30.309  0.00  0.00    -0.273 OA
BRANCH 105 112
ATOM    109  C   VAL A   3     -29.995  22.012 -28.457  0.00  0.00    +0.244 C 
ATOM    110  O   VAL A   3     -30.757  22.484 -27.613  0.00  0.00    -0.273 OA
ATOM    111  N   PRO A   4     -29.000  22.725 -29.010  0.00  0.00    -0.272 N 
ATOM    112  CA  PRO A   4     -28.845  24.149 -28.710  0.00  0.00    +0.152 C 
ATOM    113  CB  PRO A   4     -27.449  24.458 -29.256  0.00  0.00    +0.031 C 
ATOM    114  CG  PRO A   4     -27.340  23.523 -30.448  0.00  0.00    +0.024 C 
ATOM    115  CD  PRO A   4     -27.992  22.261 -29.988  0.00  0.00    +0.094 C 
BRANCH 109 116
ATOM    116  CA  VAL A   3     -30.161  20.563 -28.925  0.00  0.00    +0.149 C 
BRANCH 116 119
ATOM    117  C   SER A   2     -30.286  18.623 -27.475  0.00  0.00    +0.243 C 
ATOM    118  O   SER A   2     -29.214  18.173 -27.838  0.00  0.00    -0.273 OA
ATOM    119  N   VAL A   3     -30.781  19.783 -27.889  0.00  0.00    -0.297 N 
ATOM    120  H   VAL A   3     -31.651  20.141 -27.447  0.00  0.00    +0.150 HD
BRANCH 117 121
ATOM    121  CA  SER A   2     -31.164  17.863 -26.503  0.00  0.00    +0.178 C 
BRANCH 121 123
ATOM    122  C   ASN A   1     -32.426  16.063 -27.494  0.00  0.00    +0.239 C 
ATOM    123  N   SER A   2     -31.292  16.476 -26.932  0.00  0.00    -0.295 N 
ATOM    124  H   SER A   2     -30.502  15.813 -26.800  0.00  0.00    +0.150 HD
ATOM    125  O   ASN A   1     -33.412  16.764 -27.536  0.00  0.00    -0.274 OA
BRANCH 122 126
ATOM    126  CA  ASN A   1     -32.500  14.672 -28.101  0.00  0.00    +0.154 C 
BRANCH 126 127
ATOM    127  N   ASN A   1     -33.828  14.134 -27.850  0.00  0.00    -0.238 NA
ATOM    128  H   ASN A   1     -34.652  14.676 -28.181  0.00  0.00    +0.142 HD
ENDBRANCH 126 127
BRANCH 126 129
ATOM    129  CB  ASN A   1     -32.288  14.761 -29.623  0.00  0.00    +0.111 C 
BRANCH 129 130
ATOM    130  CG  ASN A   1     -30.841  15.069 -30.009  0.00  0.00    +0.221 C 
ATOM    131  OD1 ASN A   1     -29.889  14.687 -29.316  0.00  0.00    -0.275 OA
ATOM    132  ND2 ASN A   1     -30.674  15.750 -31.141  0.00  0.00    -0.329 N 
ATOM    133 HD21 ASN A   1     -29.716  15.980 -31.473  0.00  0.00    +0.145 HD
ATOM    134 HD22 ASN A   1     -31.502  16.052 -31.693  0.00  0.00    +0.145 HD
ENDBRANCH 129 130
ENDBRANCH 126 129
ENDBRANCH 122 126
ENDBRANCH 121 123
BRANCH 121 135
ATOM    135  CB  SER A   2     -30.664  18.029 -25.064  0.00  0.00    +0.166 C 
BRANCH 135 136
ATOM    136  OG  SER A   2     -29.371  17.539 -24.904  0.00  0.00    -0.380 OA
ATOM    137  H   SER A   2     -29.086  17.664 -23.964  0.00  0.00    +0.211 HD
ENDBRANCH 135 136
ENDBRANCH 121 135
ENDBRANCH 117 121
ENDBRANCH 116 119
BRANCH 116 138
ATOM    138  CB  VAL A   3     -31.023  20.518 -30.181  0.00  0.00    +0.027 C 
ATOM    139  CG2 VAL A   3     -32.363  21.206 -29.927  0.00  0.00    +0.002 C 
ATOM    140  CG1 VAL A   3     -31.226  19.054 -30.606  0.00  0.00    +0.002 C 
ENDBRANCH 116 138
ENDBRANCH 109 116
ENDBRANCH 105 112
ENDBRANCH 104 106
BRANCH 104 141
ATOM    141  CB  LEU A   5     -30.683  28.629 -29.135  0.00  0.00    +0.029 C 
BRANCH 141 142
ATOM    142  CG  LEU A   5     -31.302  28.868 -27.754  0.00  0.00    +0.002 C 
ATOM    143  CD2 LEU A   5     -30.743  30.151 -27.103  0.00  0.00    +0.000 C 
ATOM    144  CD1 LEU A   5     -32.797  28.922 -27.863  0.00  0.00    +0.000 C 
ENDBRANCH 141 142
ENDBRANCH 104 141
ENDBRANCH 100 104
ENDBRANCH  99 101
BRANCH  99 145
ATOM    145  CB  ASP A   6     -27.890  27.896 -33.481  0.00  0.00    +0.143 C 
BRANCH 145 146
ATOM    146  CG  ASP A   6     -26.738  26.968 -33.074  0.00  0.00    +0.367 C 
ATOM    147  OD2 ASP A   6     -26.984  25.850 -32.572  0.00  0.00    -0.246 OA
ATOM    148  OD1 ASP A   6     -25.558  27.352 -33.254  0.00  0.00    -0.246 OA
ENDBRANCH 145 146
ENDBRANCH  99 145
ENDBRANCH  95  99
ENDBRANCH  94  96
BRANCH  94 149
ATOM    149  CB  LEU A   7     -31.511  23.773 -34.686  0.00  0.00    +0.029 C 
BRANCH 149 150
ATOM    150  CG  LEU A   7     -32.767  24.432 -34.147  0.00  0.00    +0.002 C 
ATOM    151  CD2 LEU A   7     -33.274  23.709 -32.888  0.00  0.00    +0.000 C 
ATOM    152  CD1 LEU A   7     -33.825  24.447 -35.257  0.00  0.00    +0.000 C 
ENDBRANCH 149 150
ENDBRANCH  94 149
ENDBRANCH  90  94
ENDBRANCH  89  91
BRANCH  89 153
ATOM    153  CB  VAL A   8     -25.546  23.332 -34.802  0.00  0.00    +0.027 C 
ATOM    154  CG2 VAL A   8     -24.286  22.468 -34.972  0.00  0.00    +0.002 C 
ATOM    155  CG1 VAL A   8     -25.620  24.428 -35.876  0.00  0.00    +0.002 C 
ENDBRANCH  89 153
ENDBRANCH  85  89
ENDBRANCH  84  87
BRANCH  84 156
ATOM    156  CB  LEU A   9     -27.658  17.744 -34.930  0.00  0.00    +0.029 C 
BRANCH 156 157
ATOM    157  CG  LEU A   9     -29.129  18.127 -35.028  0.00  0.00    +0.002 C 
ATOM    158  CD2 LEU A   9     -29.746  18.076 -33.638  0.00  0.00    +0.000 C 
ATOM    159  CD1 LEU A   9     -29.864  17.211 -35.994  0.00  0.00    +0.000 C 
ENDBRANCH 156 157
ENDBRANCH  84 156
ENDBRANCH  80  84
ENDBRANCH   1  82
BRANCH   1 160
ATOM    160  CB  SER A  10     -22.310  18.400 -35.583  0.00  0.00    +0.166 C 
BRANCH 160 161
ATOM    161  OG  SER A  10     -22.190  19.784 -35.831  0.00  0.00    -0.380 OA
ATOM    162  H   SER A  10     -21.715  19.925 -36.688  0.00  0.00    +0.211 HD
ENDBRANCH 160 161
ENDBRANCH   1 160
TORSDOF 67
REMARK  Name = ../refined-set-2016/3q71/3q71_pocket.pdb
REMARK  207 active torsions:
REMARK  status: ('A' for Active; 'I' for Inactive)
REMARK    1  A    between atoms: _1  and  _3
REMARK    2  A    between atoms: _3  and  _4
REMARK    3  A    between atoms: _3  and  _6
REMARK    4  A    between atoms: _9  and  _11
REMARK    5  A    between atoms: _11  and  _12
REMARK    6  A    between atoms: _11  and  _14
REMARK    7  A    between atoms: _14  and  _15
REMARK    8  A    between atoms: _15  and  _16
REMARK    9  A    between atoms: _16  and  _17
REMARK   10  A    between atoms: _17  and  _18
REMARK   11  A    between atoms: _22  and  _24
REMARK   12  A    between atoms: _24  and  _25
REMARK   13  A    between atoms: _24  and  _27
REMARK   14  A    between atoms: _27  and  _28
REMARK   15  A    between atoms: _28  and  _29
REMARK   16  A    between atoms: _32  and  _34
REMARK   17  A    between atoms: _34  and  _35
REMARK   18  A    between atoms: _37  and  _39
REMARK   19  A    between atoms: _39  and  _40
REMARK   20  A    between atoms: _39  and  _42
REMARK   21  A    between atoms: _45  and  _47
REMARK   22  A    between atoms: _47  and  _48
REMARK   23  A    between atoms: _47  and  _50
REMARK   24  A    between atoms: _50  and  _51
REMARK   25  A    between atoms: _51  and  _52
REMARK   26  A    between atoms: _57  and  _59
REMARK   27  A    between atoms: _59  and  _60
REMARK   28  A    between atoms: _59  and  _62
REMARK   29  A    between atoms: _62  and  _63
REMARK   30  A    between atoms: _68  and  _70
REMARK   31  A    between atoms: _70  and  _71
REMARK   32  A    between atoms: _74  and  _76
REMARK   33  A    between atoms: _76  and  _77
REMARK   34  A    between atoms: _76  and  _79
REMARK   35  A    between atoms: _79  and  _80
REMARK   36  A    between atoms: _85  and  _87
REMARK   37  A    between atoms: _87  and  _88
REMARK   38  A    between atoms: _87  and  _90
REMARK   39  A    between atoms: _90  and  _91
REMARK   40  A    between atoms: _93  and  _95
REMARK   41  A    between atoms: _95  and  _96
REMARK   42  A    between atoms: _95  and  _98
REMARK   43  A    between atoms: _102  and  _103
REMARK   44  A    between atoms: _108  and  _110
REMARK   45  A    between atoms: _110  and  _111
REMARK   46  A    between atoms: _110  and  _113
REMARK   47  A    between atoms: _113  and  _114
REMARK   48  A    between atoms: _117  and  _119
REMARK   49  A    between atoms: _119  and  _120
REMARK   50  A    between atoms: _119  and  _122
REMARK   51  A    between atoms: _122  and  _123
REMARK   52  A    between atoms: _126  and  _128
REMARK   53  A    between atoms: _128  and  _129
REMARK   54  A    between atoms: _128  and  _131
REMARK   55  A    between atoms: _131  and  _132
REMARK   56  A    between atoms: _135  and  _137
REMARK   57  A    between atoms: _137  and  _138
REMARK   58  A    between atoms: _137  and  _140
REMARK   59  A    between atoms: _143  and  _145
REMARK   60  A    between atoms: _145  and  _146
REMARK   61  A    between atoms: _145  and  _148
REMARK   62  A    between atoms: _148  and  _149
REMARK   63  A    between atoms: _152  and  _154
REMARK   64  A    between atoms: _154  and  _155
REMARK   65  A    between atoms: _154  and  _157
REMARK   66  A    between atoms: _157  and  _158
REMARK   67  A    between atoms: _160  and  _162
REMARK   68  A    between atoms: _162  and  _163
REMARK   69  A    between atoms: _162  and  _165
REMARK   70  A    between atoms: _165  and  _166
REMARK   71  A    between atoms: _166  and  _167
REMARK   72  A    between atoms: _167  and  _168
REMARK   73  A    between atoms: _177  and  _179
REMARK   74  A    between atoms: _179  and  _180
REMARK   75  A    between atoms: _183  and  _184
REMARK   76  A    between atoms: _189  and  _191
REMARK   77  A    between atoms: _191  and  _192
REMARK   78  A    between atoms: _191  and  _194
REMARK   79  A    between atoms: _194  and  _195
REMARK   80  A    between atoms: _198  and  _200
REMARK   81  A    between atoms: _200  and  _201
REMARK   82  A    between atoms: _200  and  _203
REMARK   83  A    between atoms: _203  and  _204
REMARK   84  A    between atoms: _206  and  _208
REMARK   85  A    between atoms: _208  and  _209
REMARK   86  A    between atoms: _208  and  _211
REMARK   87  A    between atoms: _211  and  _212
REMARK   88  A    between atoms: _212  and  _213
REMARK   89  A    between atoms: _213  and  _214
REMARK   90  A    between atoms: _214  and  _215
REMARK   91  A    between atoms: _219  and  _221
REMARK   92  A    between atoms: _221  and  _222
REMARK   93  A    between atoms: _221  and  _224
REMARK   94  A    between atoms: _224  and  _225
REMARK   95  A    between atoms: _227  and  _229
REMARK   96  A    between atoms: _229  and  _230
REMARK   97  A    between atoms: _229  and  _232
REMARK   98  A    between atoms: _232  and  _233
REMARK   99  A    between atoms: _236  and  _238
REMARK  100  A    between atoms: _238  and  _239
REMARK  101  A    between atoms: _238  and  _241
REMARK  102  A    between atoms: _244  and  _246
REMARK  103  A    between atoms: _246  and  _247
REMARK  104  A    between atoms: _246  and  _249
REMARK  105  A    between atoms: _252  and  _254
REMARK  106  A    between atoms: _254  and  _255
REMARK  107  A    between atoms: _259  and  _260
REMARK  108  A    between atoms: _265  and  _267
REMARK  109  A    between atoms: _267  and  _268
REMARK  110  A    between atoms: _267  and  _270
REMARK  111  A    between atoms: _270  and  _271
REMARK  112  A    between atoms: _271  and  _272
REMARK  113  A    between atoms: _275  and  _277
REMARK  114  A    between atoms: _277  and  _278
REMARK  115  A    between atoms: _277  and  _280
REMARK  116  A    between atoms: _280  and  _281
REMARK  117  A    between atoms: _291  and  _293
REMARK  118  A    between atoms: _293  and  _294
REMARK  119  A    between atoms: _293  and  _296
REMARK  120  A    between atoms: _296  and  _297
REMARK  121  A    between atoms: _297  and  _298
REMARK  122  A    between atoms: _300  and  _302
REMARK  123  A    between atoms: _302  and  _303
REMARK  124  A    between atoms: _302  and  _305
REMARK  125  A    between atoms: _305  and  _306
REMARK  126  A    between atoms: _313  and  _314
REMARK  127  A    between atoms: _319  and  _321
REMARK  128  A    between atoms: _321  and  _322
REMARK  129  A    between atoms: _325  and  _327
REMARK  130  A    between atoms: _327  and  _328
REMARK  131  A    between atoms: _327  and  _330
REMARK  132  A    between atoms: _330  and  _331
REMARK  133  A    between atoms: _334  and  _336
REMARK  134  A    between atoms: _336  and  _337
REMARK  135  A    between atoms: _339  and  _341
REMARK  136  A    between atoms: _341  and  _342
REMARK  137  A    between atoms: _341  and  _344
REMARK  138  A    between atoms: _344  and  _345
REMARK  139  A    between atoms: _348  and  _350
REMARK  140  A    between atoms: _350  and  _351
REMARK  141  A    between atoms: _353  and  _355
REMARK  142  A    between atoms: _355  and  _356
REMARK  143  A    between atoms: _355  and  _358
REMARK  144  A    between atoms: _358  and  _359
REMARK  145  A    between atoms: _364  and  _366
REMARK  146  A    between atoms: _366  and  _367
REMARK  147  A    between atoms: _366  and  _369
REMARK  148  A    between atoms: _369  and  _370
REMARK  149  A    between atoms: _373  and  _375
REMARK  150  A    between atoms: _375  and  _376
REMARK  151  A    between atoms: _378  and  _380
REMARK  152  A    between atoms: _380  and  _381
REMARK  153  A    between atoms: _380  and  _383
REMARK  154  A    between atoms: _383  and  _384
REMARK  155  A    between atoms: _390  and  _392
REMARK  156  A    between atoms: _392  and  _393
REMARK  157  A    between atoms: _392  and  _395
REMARK  158  A    between atoms: _395  and  _396
REMARK  159  A    between atoms: _396  and  _397
REMARK  160  A    between atoms: _397  and  _398
REMARK  161  A    between atoms: _398  and  _399
REMARK  162  A    between atoms: _403  and  _405
REMARK  163  A    between atoms: _405  and  _406
REMARK  164  A    between atoms: _405  and  _408
REMARK  165  A    between atoms: _408  and  _409
REMARK  166  A    between atoms: _415  and  _417
REMARK  167  A    between atoms: _417  and  _418
REMARK  168  A    between atoms: _417  and  _420
REMARK  169  A    between atoms: _420  and  _421
REMARK  170  A    between atoms: _424  and  _426
REMARK  171  A    between atoms: _426  and  _427
REMARK  172  A    between atoms: _426  and  _429
REMARK  173  A    between atoms: _429  and  _430
REMARK  174  A    between atoms: _433  and  _435
REMARK  175  A    between atoms: _435  and  _436
REMARK  176  A    between atoms: _435  and  _438
REMARK  177  A    between atoms: _438  and  _439
REMARK  178  A    between atoms: _445  and  _446
REMARK  179  A    between atoms: _451  and  _453
REMARK  180  A    between atoms: _453  and  _454
REMARK  181  A    between atoms: _453  and  _456
REMARK  182  A    between atoms: _456  and  _457
REMARK  183  A    between atoms: _459  and  _461
REMARK  184  A    between atoms: _461  and  _462
REMARK  185  A    between atoms: _461  and  _464
REMARK  186  A    between atoms: _464  and  _465
REMARK  187  A    between atoms: _468  and  _470
REMARK  188  A    between atoms: _470  and  _471
REMARK  189  A    between atoms: _470  and  _473
REMARK  190  A    between atoms: _473  and  _474
REMARK  191  A    between atoms: _479  and  _481
REMARK  192  A    between atoms: _481  and  _482
REMARK  193  A    between atoms: _481  and  _484
REMARK  194  A    between atoms: _484  and  _485
REMARK  195  A    between atoms: _485  and  _486
REMARK  196  A    between atoms: _489  and  _491
REMARK  197  A    between atoms: _491  and  _492
REMARK  198  A    between atoms: _491  and  _494
REMARK  199  A    between atoms: _494  and  _495
REMARK  200  A    between atoms: _500  and  _502
REMARK  201  A    between atoms: _502  and  _503
REMARK  202  A    between atoms: _502  and  _505
REMARK  203  A    between atoms: _505  and  _506
REMARK  204  A    between atoms: _509  and  _511
REMARK  205  A    between atoms: _511  and  _512
REMARK  206  A    between atoms: _511  and  _514
REMARK  207  A    between atoms: _514  and  _515
REMARK                            x       y       z     vdW  Elec       q    Type
REMARK                         _______ _______ _______ _____ _____    ______ ____
ROOT
ATOM      1  C   PRO A   4     -30.073  24.262 -19.350  0.00  0.00    +0.241 C 
ATOM      2  O   PRO A   4     -29.853  23.089 -19.028  0.00  0.00    -0.273 OA
ATOM      3  N   GLU A   5     -29.190  25.239 -19.186  0.00  0.00    -0.297 N 
ATOM      4  H   GLU A   5     -29.378  26.170 -19.610  0.00  0.00    +0.150 HD
ENDROOT
BRANCH   1  10
ATOM      5  C   ALA A   3     -31.881  23.255 -21.887  0.00  0.00    +0.244 C 
ATOM      6  N   PRO A   4     -32.150  23.602 -20.623  0.00  0.00    -0.272 N 
ATOM      7  CD  PRO A   4     -33.190  23.018 -19.755  0.00  0.00    +0.094 C 
ATOM      8  CG  PRO A   4     -32.979  23.732 -18.437  0.00  0.00    +0.024 C 
ATOM      9  CB  PRO A   4     -32.358  25.035 -18.797  0.00  0.00    +0.031 C 
ATOM     10  CA  PRO A   4     -31.421  24.674 -19.937  0.00  0.00    +0.152 C 
ATOM     11  O   ALA A   3     -30.965  23.744 -22.510  0.00  0.00    -0.273 OA
BRANCH   5  12
ATOM     12  CA  ALA A   3     -32.742  22.157 -22.523  0.00  0.00    +0.149 C 
ATOM     13  CB  ALA A   3     -32.172  20.779 -22.202  0.00  0.00    +0.031 C 
BRANCH  12  15
ATOM     14  C   VAL A   2     -33.757  23.016 -24.568  0.00  0.00    +0.241 C 
ATOM     15  N   ALA A   3     -32.784  22.349 -23.958  0.00  0.00    -0.297 N 
ATOM     16  H   ALA A   3     -32.019  21.947 -24.536  0.00  0.00    +0.150 HD
ATOM     17  O   VAL A   2     -34.681  23.584 -23.974  0.00  0.00    -0.273 OA
BRANCH  14  18
ATOM     18  CA  VAL A   2     -33.700  22.997 -26.087  0.00  0.00    +0.148 C 
BRANCH  18  20
ATOM     19  C   VAL A   1     -34.362  20.739 -26.661  0.00  0.00    +0.238 C 
ATOM     20  N   VAL A   2     -34.681  22.017 -26.525  0.00  0.00    -0.297 N 
ATOM     21  H   VAL A   2     -35.652  22.326 -26.735  0.00  0.00    +0.150 HD
ATOM     22  O   VAL A   1     -33.204  20.335 -26.582  0.00  0.00    -0.274 OA
BRANCH  19  23
ATOM     23  CA  VAL A   1     -35.510  19.788 -26.974  0.00  0.00    +0.145 C 
BRANCH  23  24
ATOM     24  CB  VAL A   1     -35.995  19.075 -25.680  0.00  0.00    +0.025 C 
ATOM     25  CG2 VAL A   1     -34.810  18.517 -24.872  0.00  0.00    +0.002 C 
ATOM     26  CG1 VAL A   1     -37.019  17.996 -26.029  0.00  0.00    +0.002 C 
ENDBRANCH  23  24
BRANCH  23  27
ATOM     27  N   VAL A   1     -35.137  18.832 -28.005  0.00  0.00    -0.238 NA
ATOM     28  H   VAL A   1     -34.327  18.200 -27.841  0.00  0.00    +0.142 HD
ENDBRANCH  23  27
ENDBRANCH  19  23
ENDBRANCH  18  20
BRANCH  18  29
ATOM     29  CB  VAL A   2     -33.975  24.399 -26.649  0.00  0.00    +0.027 C 
ATOM     30  CG2 VAL A   2     -32.909  25.397 -26.138  0.00  0.00    +0.002 C 
ATOM     31  CG1 VAL A   2     -34.031  24.364 -28.191  0.00  0.00    +0.002 C 
ENDBRANCH  18  29
ENDBRANCH  14  18
ENDBRANCH  12  15
ENDBRANCH   5  12
ENDBRANCH   1  10
BRANCH   3  32
ATOM     32  CA  GLU A   5     -27.965  25.038 -18.426  0.00  0.00    +0.149 C 
BRANCH  32  33
ATOM     33  C   GLU A   5     -28.286  24.894 -16.943  0.00  0.00    +0.241 C 
ATOM     34  N   TRP A   6     -27.477  24.105 -16.247  0.00  0.00    -0.298 N 
ATOM     35  H   TRP A   6     -26.693  23.625 -16.733  0.00  0.00    +0.150 HD
ATOM     36  O   GLU A   5     -29.247  25.492 -16.436  0.00  0.00    -0.273 OA
BRANCH  34  37
ATOM     37  CA  TRP A   6     -27.664  23.897 -14.814  0.00  0.00    +0.141 C 
BRANCH  37  38
ATOM     38  C   TRP A   6     -27.640  25.252 -14.064  0.00  0.00    +0.227 C 
ATOM     39  O   TRP A   6     -28.516  25.524 -13.237  0.00  0.00    -0.286 OA
ENDBRANCH  37  38
BRANCH  37  40
ATOM     40  CB  TRP A   6     -26.592  22.934 -14.304  0.00  0.00    +0.056 C 
BRANCH  40  41
ATOM     41  CG  TRP A   6     -26.638  22.589 -12.851  0.00  0.00    -0.002 A 
ATOM     42  CD1 TRP A   6     -25.615  22.715 -11.952  0.00  0.00    +0.068 A 
ATOM     43  NE1 TRP A   6     -26.016  22.273 -10.724  0.00  0.00    -0.352 N 
ATOM     44  HE1 TRP A   6     -25.426  22.257  -9.867  0.00  0.00    +0.166 HD
ATOM     45  CE2 TRP A   6     -27.317  21.854 -10.799  0.00  0.00    +0.056 A 
ATOM     46  CZ2 TRP A   6     -28.145  21.317  -9.815  0.00  0.00    +0.017 A 
ATOM     47  CH2 TRP A   6     -29.417  20.956 -10.180  0.00  0.00    +0.001 A 
ATOM     48  CZ3 TRP A   6     -29.867  21.112 -11.499  0.00  0.00    +0.000 A 
ATOM     49  CE3 TRP A   6     -29.039  21.640 -12.481  0.00  0.00    +0.001 A 
ATOM     50  CD2 TRP A   6     -27.739  22.025 -12.129  0.00  0.00    +0.013 A 
ENDBRANCH  40  41
ENDBRANCH  37  40
ENDBRANCH  34  37
ENDBRANCH  32  33
BRANCH  32  51
ATOM     51  CB  GLU A   5     -27.010  26.214 -18.615  0.00  0.00    +0.041 C 
BRANCH  51  52
ATOM     52  CG  GLU A   5     -26.644  26.499 -20.066  0.00  0.00    +0.116 C 
BRANCH  52  53
ATOM     53  CD  GLU A   5     -25.494  27.473 -20.196  0.00  0.00    +0.365 C 
ATOM     54  OE2 GLU A   5     -24.541  27.399 -19.398  0.00  0.00    -0.246 OA
ATOM     55  OE1 GLU A   5     -25.523  28.310 -21.114  0.00  0.00    -0.246 OA
ENDBRANCH  52  53
ENDBRANCH  51  52
ENDBRANCH  32  51
ENDBRANCH   3  32
TORSDOF 18
REMARK  Name = ../refined-set-2016/3q71/3q71_pocket.pdb
REMARK  207 active torsions:
REMARK  status: ('A' for Active; 'I' for Inactive)
REMARK    1  A    between atoms: _1  and  _3
REMARK    2  A    between atoms: _3  and  _4
REMARK    3  A    between atoms: _3  and  _6
REMARK    4  A    between atoms: _9  and  _11
REMARK    5  A    between atoms: _11  and  _12
REMARK    6  A    between atoms: _11  and  _14
REMARK    7  A    between atoms: _14  and  _15
REMARK    8  A    between atoms: _15  and  _16
REMARK    9  A    between atoms: _16  and  _17
REMARK   10  A    between atoms: _17  and  _18
REMARK   11  A    between atoms: _22  and  _24
REMARK   12  A    between atoms: _24  and  _25
REMARK   13  A    between atoms: _24  and  _27
REMARK   14  A    between atoms: _27  and  _28
REMARK   15  A    between atoms: _28  and  _29
REMARK   16  A    between atoms: _32  and  _34
REMARK   17  A    between atoms: _34  and  _35
REMARK   18  A    between atoms: _37  and  _39
REMARK   19  A    between atoms: _39  and  _40
REMARK   20  A    between atoms: _39  and  _42
REMARK   21  A    between atoms: _45  and  _47
REMARK   22  A    between atoms: _47  and  _48
REMARK   23  A    between atoms: _47  and  _50
REMARK   24  A    between atoms: _50  and  _51
REMARK   25  A    between atoms: _51  and  _52
REMARK   26  A    between atoms: _57  and  _59
REMARK   27  A    between atoms: _59  and  _60
REMARK   28  A    between atoms: _59  and  _62
REMARK   29  A    between atoms: _62  and  _63
REMARK   30  A    between atoms: _68  and  _70
REMARK   31  A    between atoms: _70  and  _71
REMARK   32  A    between atoms: _74  and  _76
REMARK   33  A    between atoms: _76  and  _77
REMARK   34  A    between atoms: _76  and  _79
REMARK   35  A    between atoms: _79  and  _80
REMARK   36  A    between atoms: _85  and  _87
REMARK   37  A    between atoms: _87  and  _88
REMARK   38  A    between atoms: _87  and  _90
REMARK   39  A    between atoms: _90  and  _91
REMARK   40  A    between atoms: _93  and  _95
REMARK   41  A    between atoms: _95  and  _96
REMARK   42  A    between atoms: _95  and  _98
REMARK   43  A    between atoms: _102  and  _103
REMARK   44  A    between atoms: _108  and  _110
REMARK   45  A    between atoms: _110  and  _111
REMARK   46  A    between atoms: _110  and  _113
REMARK   47  A    between atoms: _113  and  _114
REMARK   48  A    between atoms: _117  and  _119
REMARK   49  A    between atoms: _119  and  _120
REMARK   50  A    between atoms: _119  and  _122
REMARK   51  A    between atoms: _122  and  _123
REMARK   52  A    between atoms: _126  and  _128
REMARK   53  A    between atoms: _128  and  _129
REMARK   54  A    between atoms: _128  and  _131
REMARK   55  A    between atoms: _131  and  _132
REMARK   56  A    between atoms: _135  and  _137
REMARK   57  A    between atoms: _137  and  _138
REMARK   58  A    between atoms: _137  and  _140
REMARK   59  A    between atoms: _143  and  _145
REMARK   60  A    between atoms: _145  and  _146
REMARK   61  A    between atoms: _145  and  _148
REMARK   62  A    between atoms: _148  and  _149
REMARK   63  A    between atoms: _152  and  _154
REMARK   64  A    between atoms: _154  and  _155
REMARK   65  A    between atoms: _154  and  _157
REMARK   66  A    between atoms: _157  and  _158
REMARK   67  A    between atoms: _160  and  _162
REMARK   68  A    between atoms: _162  and  _163
REMARK   69  A    between atoms: _162  and  _165
REMARK   70  A    between atoms: _165  and  _166
REMARK   71  A    between atoms: _166  and  _167
REMARK   72  A    between atoms: _167  and  _168
REMARK   73  A    between atoms: _177  and  _179
REMARK   74  A    between atoms: _179  and  _180
REMARK   75  A    between atoms: _183  and  _184
REMARK   76  A    between atoms: _189  and  _191
REMARK   77  A    between atoms: _191  and  _192
REMARK   78  A    between atoms: _191  and  _194
REMARK   79  A    between atoms: _194  and  _195
REMARK   80  A    between atoms: _198  and  _200
REMARK   81  A    between atoms: _200  and  _201
REMARK   82  A    between atoms: _200  and  _203
REMARK   83  A    between atoms: _203  and  _204
REMARK   84  A    between atoms: _206  and  _208
REMARK   85  A    between atoms: _208  and  _209
REMARK   86  A    between atoms: _208  and  _211
REMARK   87  A    between atoms: _211  and  _212
REMARK   88  A    between atoms: _212  and  _213
REMARK   89  A    between atoms: _213  and  _214
REMARK   90  A    between atoms: _214  and  _215
REMARK   91  A    between atoms: _219  and  _221
REMARK   92  A    between atoms: _221  and  _222
REMARK   93  A    between atoms: _221  and  _224
REMARK   94  A    between atoms: _224  and  _225
REMARK   95  A    between atoms: _227  and  _229
REMARK   96  A    between atoms: _229  and  _230
REMARK   97  A    between atoms: _229  and  _232
REMARK   98  A    between atoms: _232  and  _233
REMARK   99  A    between atoms: _236  and  _238
REMARK  100  A    between atoms: _238  and  _239
REMARK  101  A    between atoms: _238  and  _241
REMARK  102  A    between atoms: _244  and  _246
REMARK  103  A    between atoms: _246  and  _247
REMARK  104  A    between atoms: _246  and  _249
REMARK  105  A    between atoms: _252  and  _254
REMARK  106  A    between atoms: _254  and  _255
REMARK  107  A    between atoms: _259  and  _260
REMARK  108  A    between atoms: _265  and  _267
REMARK  109  A    between atoms: _267  and  _268
REMARK  110  A    between atoms: _267  and  _270
REMARK  111  A    between atoms: _270  and  _271
REMARK  112  A    between atoms: _271  and  _272
REMARK  113  A    between atoms: _275  and  _277
REMARK  114  A    between atoms: _277  and  _278
REMARK  115  A    between atoms: _277  and  _280
REMARK  116  A    between atoms: _280  and  _281
REMARK  117  A    between atoms: _291  and  _293
REMARK  118  A    between atoms: _293  and  _294
REMARK  119  A    between atoms: _293  and  _296
REMARK  120  A    between atoms: _296  and  _297
REMARK  121  A    between atoms: _297  and  _298
REMARK  122  A    between atoms: _300  and  _302
REMARK  123  A    between atoms: _302  and  _303
REMARK  124  A    between atoms: _302  and  _305
REMARK  125  A    between atoms: _305  and  _306
REMARK  126  A    between atoms: _313  and  _314
REMARK  127  A    between atoms: _319  and  _321
REMARK  128  A    between atoms: _321  and  _322
REMARK  129  A    between atoms: _325  and  _327
REMARK  130  A    between atoms: _327  and  _328
REMARK  131  A    between atoms: _327  and  _330
REMARK  132  A    between atoms: _330  and  _331
REMARK  133  A    between atoms: _334  and  _336
REMARK  134  A    between atoms: _336  and  _337
REMARK  135  A    between atoms: _339  and  _341
REMARK  136  A    between atoms: _341  and  _342
REMARK  137  A    between atoms: _341  and  _344
REMARK  138  A    between atoms: _344  and  _345
REMARK  139  A    between atoms: _348  and  _350
REMARK  140  A    between atoms: _350  and  _351
REMARK  141  A    between atoms: _353  and  _355
REMARK  142  A    between atoms: _355  and  _356
REMARK  143  A    between atoms: _355  and  _358
REMARK  144  A    between atoms: _358  and  _359
REMARK  145  A    between atoms: _364  and  _366
REMARK  146  A    between atoms: _366  and  _367
REMARK  147  A    between atoms: _366  and  _369
REMARK  148  A    between atoms: _369  and  _370
REMARK  149  A    between atoms: _373  and  _375
REMARK  150  A    between atoms: _375  and  _376
REMARK  151  A    between atoms: _378  and  _380
REMARK  152  A    between atoms: _380  and  _381
REMARK  153  A    between atoms: _380  and  _383
REMARK  154  A    between atoms: _383  and  _384
REMARK  155  A    between atoms: _390  and  _392
REMARK  156  A    between atoms: _392  and  _393
REMARK  157  A    between atoms: _392  and  _395
REMARK  158  A    between atoms: _395  and  _396
REMARK  159  A    between atoms: _396  and  _397
REMARK  160  A    between atoms: _397  and  _398
REMARK  161  A    between atoms: _398  and  _399
REMARK  162  A    between atoms: _403  and  _405
REMARK  163  A    between atoms: _405  and  _406
REMARK  164  A    between atoms: _405  and  _408
REMARK  165  A    between atoms: _408  and  _409
REMARK  166  A    between atoms: _415  and  _417
REMARK  167  A    between atoms: _417  and  _418
REMARK  168  A    between atoms: _417  and  _420
REMARK  169  A    between atoms: _420  and  _421
REMARK  170  A    between atoms: _424  and  _426
REMARK  171  A    between atoms: _426  and  _427
REMARK  172  A    between atoms: _426  and  _429
REMARK  173  A    between atoms: _429  and  _430
REMARK  174  A    between atoms: _433  and  _435
REMARK  175  A    between atoms: _435  and  _436
REMARK  176  A    between atoms: _435  and  _438
REMARK  177  A    between atoms: _438  and  _439
REMARK  178  A    between atoms: _445  and  _446
REMARK  179  A    between atoms: _451  and  _453
REMARK  180  A    between atoms: _453  and  _454
REMARK  181  A    between atoms: _453  and  _456
REMARK  182  A    between atoms: _456  and  _457
REMARK  183  A    between atoms: _459  and  _461
REMARK  184  A    between atoms: _461  and  _462
REMARK  185  A    between atoms: _461  and  _464
REMARK  186  A    between atoms: _464  and  _465
REMARK  187  A    between atoms: _468  and  _470
REMARK  188  A    between atoms: _470  and  _471
REMARK  189  A    between atoms: _470  and  _473
REMARK  190  A    between atoms: _473  and  _474
REMARK  191  A    between atoms: _479  and  _481
REMARK  192  A    between atoms: _481  and  _482
REMARK  193  A    between atoms: _481  and  _484
REMARK  194  A    between atoms: _484  and  _485
REMARK  195  A    between atoms: _485  and  _486
REMARK  196  A    between atoms: _489  and  _491
REMARK  197  A    between atoms: _491  and  _492
REMARK  198  A    between atoms: _491  and  _494
REMARK  199  A    between atoms: _494  and  _495
REMARK  200  A    between atoms: _500  and  _502
REMARK  201  A    between atoms: _502  and  _503
REMARK  202  A    between atoms: _502  and  _505
REMARK  203  A    between atoms: _505  and  _506
REMARK  204  A    between atoms: _509  and  _511
REMARK  205  A    between atoms: _511  and  _512
REMARK  206  A    between atoms: _511  and  _514
REMARK  207  A    between atoms: _514  and  _515
REMARK                            x       y       z     vdW  Elec       q    Type
REMARK                         _______ _______ _______ _____ _____    ______ ____
ROOT
ATOM      1  CA  MET A   1     -36.185  20.589 -17.429  0.00  0.00    +0.134 C 
ENDROOT
BRANCH   1   2
ATOM      2  N   MET A   1     -36.509  21.990 -17.132  0.00  0.00    -0.239 NA
ATOM      3  H   MET A   1     -35.940  22.491 -16.420  0.00  0.00    +0.142 HD
ENDBRANCH   1   2
BRANCH   1   4
ATOM      4  C   MET A   1     -37.362  19.662 -17.123  0.00  0.00    +0.224 C 
ATOM      5  O   MET A   1     -37.746  18.850 -17.949  0.00  0.00    -0.287 OA
ENDBRANCH   1   4
BRANCH   1   6
ATOM      6  CB  MET A   1     -34.947  20.158 -16.634  0.00  0.00    +0.037 C 
BRANCH   6   7
ATOM      7  CG  MET A   1     -34.398  18.763 -16.977  0.00  0.00    +0.059 C 
BRANCH   7   8
ATOM      8  SD  MET A   1     -33.954  18.575 -18.729  0.00  0.00    -0.139 S 
ATOM      9  CE  MET A   1     -32.181  18.800 -18.670  0.00  0.00    +0.069 C 
ENDBRANCH   7   8
ENDBRANCH   6   7
ENDBRANCH   1   6
TORSDOF 5
REMARK  Name = ../refined-set-2016/3q71/3q71_pocket.pdb
REMARK  207 active torsions:
REMARK  status: ('A' for Active; 'I' for Inactive)
REMARK    1  A    between atoms: _1  and  _3
REMARK    2  A    between atoms: _3  and  _4
REMARK    3  A    between atoms: _3  and  _6
REMARK    4  A    between atoms: _9  and  _11
REMARK    5  A    between atoms: _11  and  _12
REMARK    6  A    between atoms: _11  and  _14
REMARK    7  A    between atoms: _14  and  _15
REMARK    8  A    between atoms: _15  and  _16
REMARK    9  A    between atoms: _16  and  _17
REMARK   10  A    between atoms: _17  and  _18
REMARK   11  A    between atoms: _22  and  _24
REMARK   12  A    between atoms: _24  and  _25
REMARK   13  A    between atoms: _24  and  _27
REMARK   14  A    between atoms: _27  and  _28
REMARK   15  A    between atoms: _28  and  _29
REMARK   16  A    between atoms: _32  and  _34
REMARK   17  A    between atoms: _34  and  _35
REMARK   18  A    between atoms: _37  and  _39
REMARK   19  A    between atoms: _39  and  _40
REMARK   20  A    between atoms: _39  and  _42
REMARK   21  A    between atoms: _45  and  _47
REMARK   22  A    between atoms: _47  and  _48
REMARK   23  A    between atoms: _47  and  _50
REMARK   24  A    between atoms: _50  and  _51
REMARK   25  A    between atoms: _51  and  _52
REMARK   26  A    between atoms: _57  and  _59
REMARK   27  A    between atoms: _59  and  _60
REMARK   28  A    between atoms: _59  and  _62
REMARK   29  A    between atoms: _62  and  _63
REMARK   30  A    between atoms: _68  and  _70
REMARK   31  A    between atoms: _70  and  _71
REMARK   32  A    between atoms: _74  and  _76
REMARK   33  A    between atoms: _76  and  _77
REMARK   34  A    between atoms: _76  and  _79
REMARK   35  A    between atoms: _79  and  _80
REMARK   36  A    between atoms: _85  and  _87
REMARK   37  A    between atoms: _87  and  _88
REMARK   38  A    between atoms: _87  and  _90
REMARK   39  A    between atoms: _90  and  _91
REMARK   40  A    between atoms: _93  and  _95
REMARK   41  A    between atoms: _95  and  _96
REMARK   42  A    between atoms: _95  and  _98
REMARK   43  A    between atoms: _102  and  _103
REMARK   44  A    between atoms: _108  and  _110
REMARK   45  A    between atoms: _110  and  _111
REMARK   46  A    between atoms: _110  and  _113
REMARK   47  A    between atoms: _113  and  _114
REMARK   48  A    between atoms: _117  and  _119
REMARK   49  A    between atoms: _119  and  _120
REMARK   50  A    between atoms: _119  and  _122
REMARK   51  A    between atoms: _122  and  _123
REMARK   52  A    between atoms: _126  and  _128
REMARK   53  A    between atoms: _128  and  _129
REMARK   54  A    between atoms: _128  and  _131
REMARK   55  A    between atoms: _131  and  _132
REMARK   56  A    between atoms: _135  and  _137
REMARK   57  A    between atoms: _137  and  _138
REMARK   58  A    between atoms: _137  and  _140
REMARK   59  A    between atoms: _143  and  _145
REMARK   60  A    between atoms: _145  and  _146
REMARK   61  A    between atoms: _145  and  _148
REMARK   62  A    between atoms: _148  and  _149
REMARK   63  A    between atoms: _152  and  _154
REMARK   64  A    between atoms: _154  and  _155
REMARK   65  A    between atoms: _154  and  _157
REMARK   66  A    between atoms: _157  and  _158
REMARK   67  A    between atoms: _160  and  _162
REMARK   68  A    between atoms: _162  and  _163
REMARK   69  A    between atoms: _162  and  _165
REMARK   70  A    between atoms: _165  and  _166
REMARK   71  A    between atoms: _166  and  _167
REMARK   72  A    between atoms: _167  and  _168
REMARK   73  A    between atoms: _177  and  _179
REMARK   74  A    between atoms: _179  and  _180
REMARK   75  A    between atoms: _183  and  _184
REMARK   76  A    between atoms: _189  and  _191
REMARK   77  A    between atoms: _191  and  _192
REMARK   78  A    between atoms: _191  and  _194
REMARK   79  A    between atoms: _194  and  _195
REMARK   80  A    between atoms: _198  and  _200
REMARK   81  A    between atoms: _200  and  _201
REMARK   82  A    between atoms: _200  and  _203
REMARK   83  A    between atoms: _203  and  _204
REMARK   84  A    between atoms: _206  and  _208
REMARK   85  A    between atoms: _208  and  _209
REMARK   86  A    between atoms: _208  and  _211
REMARK   87  A    between atoms: _211  and  _212
REMARK   88  A    between atoms: _212  and  _213
REMARK   89  A    between atoms: _213  and  _214
REMARK   90  A    between atoms: _214  and  _215
REMARK   91  A    between atoms: _219  and  _221
REMARK   92  A    between atoms: _221  and  _222
REMARK   93  A    between atoms: _221  and  _224
REMARK   94  A    between atoms: _224  and  _225
REMARK   95  A    between atoms: _227  and  _229
REMARK   96  A    between atoms: _229  and  _230
REMARK   97  A    between atoms: _229  and  _232
REMARK   98  A    between atoms: _232  and  _233
REMARK   99  A    between atoms: _236  and  _238
REMARK  100  A    between atoms: _238  and  _239
REMARK  101  A    between atoms: _238  and  _241
REMARK  102  A    between atoms: _244  and  _246
REMARK  103  A    between atoms: _246  and  _247
REMARK  104  A    between atoms: _246  and  _249
REMARK  105  A    between atoms: _252  and  _254
REMARK  106  A    between atoms: _254  and  _255
REMARK  107  A    between atoms: _259  and  _260
REMARK  108  A    between atoms: _265  and  _267
REMARK  109  A    between atoms: _267  and  _268
REMARK  110  A    between atoms: _267  and  _270
REMARK  111  A    between atoms: _270  and  _271
REMARK  112  A    between atoms: _271  and  _272
REMARK  113  A    between atoms: _275  and  _277
REMARK  114  A    between atoms: _277  and  _278
REMARK  115  A    between atoms: _277  and  _280
REMARK  116  A    between atoms: _280  and  _281
REMARK  117  A    between atoms: _291  and  _293
REMARK  118  A    between atoms: _293  and  _294
REMARK  119  A    between atoms: _293  and  _296
REMARK  120  A    between atoms: _296  and  _297
REMARK  121  A    between atoms: _297  and  _298
REMARK  122  A    between atoms: _300  and  _302
REMARK  123  A    between atoms: _302  and  _303
REMARK  124  A    between atoms: _302  and  _305
REMARK  125  A    between atoms: _305  and  _306
REMARK  126  A    between atoms: _313  and  _314
REMARK  127  A    between atoms: _319  and  _321
REMARK  128  A    between atoms: _321  and  _322
REMARK  129  A    between atoms: _325  and  _327
REMARK  130  A    between atoms: _327  and  _328
REMARK  131  A    between atoms: _327  and  _330
REMARK  132  A    between atoms: _330  and  _331
REMARK  133  A    between atoms: _334  and  _336
REMARK  134  A    between atoms: _336  and  _337
REMARK  135  A    between atoms: _339  and  _341
REMARK  136  A    between atoms: _341  and  _342
REMARK  137  A    between atoms: _341  and  _344
REMARK  138  A    between atoms: _344  and  _345
REMARK  139  A    between atoms: _348  and  _350
REMARK  140  A    between atoms: _350  and  _351
REMARK  141  A    between atoms: _353  and  _355
REMARK  142  A    between atoms: _355  and  _356
REMARK  143  A    between atoms: _355  and  _358
REMARK  144  A    between atoms: _358  and  _359
REMARK  145  A    between atoms: _364  and  _366
REMARK  146  A    between atoms: _366  and  _367
REMARK  147  A    between atoms: _366  and  _369
REMARK  148  A    between atoms: _369  and  _370
REMARK  149  A    between atoms: _373  and  _375
REMARK  150  A    between atoms: _375  and  _376
REMARK  151  A    between atoms: _378  and  _380
REMARK  152  A    between atoms: _380  and  _381
REMARK  153  A    between atoms: _380  and  _383
REMARK  154  A    between atoms: _383  and  _384
REMARK  155  A    between atoms: _390  and  _392
REMARK  156  A    between atoms: _392  and  _393
REMARK  157  A    between atoms: _392  and  _395
REMARK  158  A    between atoms: _395  and  _396
REMARK  159  A    between atoms: _396  and  _397
REMARK  160  A    between atoms: _397  and  _398
REMARK  161  A    between atoms: _398  and  _399
REMARK  162  A    between atoms: _403  and  _405
REMARK  163  A    between atoms: _405  and  _406
REMARK  164  A    between atoms: _405  and  _408
REMARK  165  A    between atoms: _408  and  _409
REMARK  166  A    between atoms: _415  and  _417
REMARK  167  A    between atoms: _417  and  _418
REMARK  168  A    between atoms: _417  and  _420
REMARK  169  A    between atoms: _420  and  _421
REMARK  170  A    between atoms: _424  and  _426
REMARK  171  A    between atoms: _426  and  _427
REMARK  172  A    between atoms: _426  and  _429
REMARK  173  A    between atoms: _429  and  _430
REMARK  174  A    between atoms: _433  and  _435
REMARK  175  A    between atoms: _435  and  _436
REMARK  176  A    between atoms: _435  and  _438
REMARK  177  A    between atoms: _438  and  _439
REMARK  178  A    between atoms: _445  and  _446
REMARK  179  A    between atoms: _451  and  _453
REMARK  180  A    between atoms: _453  and  _454
REMARK  181  A    between atoms: _453  and  _456
REMARK  182  A    between atoms: _456  and  _457
REMARK  183  A    between atoms: _459  and  _461
REMARK  184  A    between atoms: _461  and  _462
REMARK  185  A    between atoms: _461  and  _464
REMARK  186  A    between atoms: _464  and  _465
REMARK  187  A    between atoms: _468  and  _470
REMARK  188  A    between atoms: _470  and  _471
REMARK  189  A    between atoms: _470  and  _473
REMARK  190  A    between atoms: _473  and  _474
REMARK  191  A    between atoms: _479  and  _481
REMARK  192  A    between atoms: _481  and  _482
REMARK  193  A    between atoms: _481  and  _484
REMARK  194  A    between atoms: _484  and  _485
REMARK  195  A    between atoms: _485  and  _486
REMARK  196  A    between atoms: _489  and  _491
REMARK  197  A    between atoms: _491  and  _492
REMARK  198  A    between atoms: _491  and  _494
REMARK  199  A    between atoms: _494  and  _495
REMARK  200  A    between atoms: _500  and  _502
REMARK  201  A    between atoms: _502  and  _503
REMARK  202  A    between atoms: _502  and  _505
REMARK  203  A    between atoms: _505  and  _506
REMARK  204  A    between atoms: _509  and  _511
REMARK  205  A    between atoms: _511  and  _512
REMARK  206  A    between atoms: _511  and  _514
REMARK  207  A    between atoms: _514  and  _515
REMARK                            x       y       z     vdW  Elec       q    Type
REMARK                         _______ _______ _______ _____ _____    ______ ____
ROOT
ATOM      1  CA  THR A   6     -26.103  15.804 -17.669  0.00  0.00    +0.176 C 
ENDROOT
BRANCH   1   2
ATOM      2  C   THR A   6     -24.700  15.829 -18.258  0.00  0.00    +0.243 C 
ATOM      3  O   THR A   6     -23.746  15.381 -17.612  0.00  0.00    -0.273 OA
ATOM      4  N   GLY A   7     -24.557  16.351 -19.470  0.00  0.00    -0.295 N 
ATOM      5  H   GLY A   7     -25.400  16.682 -19.982  0.00  0.00    +0.150 HD
BRANCH   4   6
ATOM      6  CA  GLY A   7     -23.239  16.473 -20.106  0.00  0.00    +0.176 C 
BRANCH   6   7
ATOM      7  C   GLY A   7     -22.811  17.921 -20.146  0.00  0.00    +0.243 C 
ATOM      8  O   GLY A   7     -22.470  18.488 -19.116  0.00  0.00    -0.273 OA
ATOM      9  N   ASN A   8     -22.853  18.531 -21.327  0.00  0.00    -0.297 N 
ATOM     10  H   ASN A   8     -23.169  17.998 -22.163  0.00  0.00    +0.150 HD
BRANCH   9  11
ATOM     11  CA  ASN A   8     -22.465  19.935 -21.479  0.00  0.00    +0.158 C 
BRANCH  11  12
ATOM     12  C   ASN A   8     -23.302  20.887 -20.642  0.00  0.00    +0.241 C 
ATOM     13  O   ASN A   8     -22.790  21.912 -20.216  0.00  0.00    -0.273 OA
ATOM     14  N   LEU A   9     -24.570  20.558 -20.394  0.00  0.00    -0.297 N 
ATOM     15  H   LEU A   9     -24.948  19.657 -20.751  0.00  0.00    +0.150 HD
BRANCH  14  16
ATOM     16  CA  LEU A   9     -25.437  21.457 -19.621  0.00  0.00    +0.149 C 
BRANCH  16  17
ATOM     17  C   LEU A   9     -25.202  21.397 -18.109  0.00  0.00    +0.241 C 
ATOM     18  O   LEU A   9     -25.710  22.235 -17.373  0.00  0.00    -0.273 OA
ATOM     19  N   GLY A  10     -24.433  20.419 -17.653  0.00  0.00    -0.295 N 
ATOM     20  H   GLY A  10     -24.167  19.647 -18.297  0.00  0.00    +0.150 HD
BRANCH  19  21
ATOM     21  CA  GLY A  10     -23.944  20.390 -16.270  0.00  0.00    +0.176 C 
BRANCH  21  22
ATOM     22  C   GLY A  10     -24.920  19.955 -15.173  0.00  0.00    +0.243 C 
ATOM     23  O   GLY A  10     -24.632  20.153 -13.995  0.00  0.00    -0.273 OA
ATOM     24  N   PHE A  11     -26.074  19.386 -15.521  0.00  0.00    -0.298 N 
ATOM     25  H   PHE A  11     -26.354  19.344 -16.522  0.00  0.00    +0.150 HD
BRANCH  24  26
ATOM     26  CA  PHE A  11     -26.959  18.812 -14.474  0.00  0.00    +0.141 C 
BRANCH  26  27
ATOM     27  C   PHE A  11     -26.211  17.671 -13.782  0.00  0.00    +0.227 C 
ATOM     28  O   PHE A  11     -25.736  16.765 -14.463  0.00  0.00    -0.286 OA
ENDBRANCH  26  27
BRANCH  26  29
ATOM     29  CB  PHE A  11     -28.273  18.252 -15.042  0.00  0.00    +0.054 C 
BRANCH  29  30
ATOM     30  CG  PHE A  11     -29.345  19.273 -15.235  0.00  0.00    -0.020 A 
ATOM     31  CD2 PHE A  11     -30.503  19.223 -14.485  0.00  0.00    -0.004 A 
ATOM     32  CE2 PHE A  11     -31.497  20.154 -14.660  0.00  0.00    -0.000 A 
ATOM     33  CZ  PHE A  11     -31.346  21.164 -15.586  0.00  0.00    -0.000 A 
ATOM     34  CE1 PHE A  11     -30.195  21.228 -16.339  0.00  0.00    -0.000 A 
ATOM     35  CD1 PHE A  11     -29.204  20.280 -16.168  0.00  0.00    -0.004 A 
ENDBRANCH  29  30
ENDBRANCH  26  29
ENDBRANCH  24  26
ENDBRANCH  21  22
ENDBRANCH  19  21
ENDBRANCH  16  17
BRANCH  16  36
ATOM     36  CB  LEU A   9     -26.909  21.216 -19.958  0.00  0.00    +0.029 C 
BRANCH  36  37
ATOM     37  CG  LEU A   9     -27.270  21.656 -21.379  0.00  0.00    +0.002 C 
ATOM     38  CD2 LEU A   9     -27.078  23.160 -21.583  0.00  0.00    +0.000 C 
ATOM     39  CD1 LEU A   9     -28.692  21.232 -21.770  0.00  0.00    +0.000 C 
ENDBRANCH  36  37
ENDBRANCH  16  36
ENDBRANCH  14  16
ENDBRANCH  11  12
BRANCH  11  40
ATOM     40  CB  ASN A   8     -22.514  20.389 -22.945  0.00  0.00    +0.114 C 
BRANCH  40  41
ATOM     41  CG  ASN A   8     -21.341  19.870 -23.771  0.00  0.00    +0.222 C 
ATOM     42  OD1 ASN A   8     -20.289  19.531 -23.234  0.00  0.00    -0.275 OA
ATOM     43  ND2 ASN A   8     -21.529  19.796 -25.075  0.00  0.00    -0.329 N 
ATOM     44 HD21 ASN A   8     -22.436  20.094 -25.487  0.00  0.00    +0.145 HD
ATOM     45 HD22 ASN A   8     -20.770  19.440 -25.690  0.00  0.00    +0.145 HD
ENDBRANCH  40  41
ENDBRANCH  11  40
ENDBRANCH   9  11
ENDBRANCH   6   7
ENDBRANCH   4   6
ENDBRANCH   1   2
BRANCH   1  48
ATOM     46  C   GLY A   5     -27.516  17.555 -18.611  0.00  0.00    +0.243 C 
ATOM     47  O   GLY A   5     -26.908  18.420 -17.982  0.00  0.00    -0.273 OA
ATOM     48  N   THR A   6     -27.148  16.279 -18.589  0.00  0.00    -0.295 N 
ATOM     49  H   THR A   6     -27.607  15.604 -19.233  0.00  0.00    +0.150 HD
BRANCH  46  50
ATOM     50  CA  GLY A   5     -28.735  17.928 -19.444  0.00  0.00    +0.176 C 
BRANCH  50  53
ATOM     51  C   ILE A   4     -29.958  15.927 -20.117  0.00  0.00    +0.241 C 
ATOM     52  O   ILE A   4     -30.346  15.710 -18.972  0.00  0.00    -0.273 OA
ATOM     53  N   GLY A   5     -29.174  16.952 -20.439  0.00  0.00    -0.295 N 
ATOM     54  H   GLY A   5     -28.865  17.062 -21.426  0.00  0.00    +0.150 HD
BRANCH  51  55
ATOM     55  CA  ILE A   4     -30.324  14.986 -21.245  0.00  0.00    +0.149 C 
BRANCH  55  58
ATOM     56  C   ALA A   3     -29.478  13.021 -20.087  0.00  0.00    +0.241 C 
ATOM     57  O   ALA A   3     -28.384  13.551 -19.875  0.00  0.00    -0.273 OA
ATOM     58  N   ILE A   4     -30.475  13.643 -20.712  0.00  0.00    -0.297 N 
ATOM     59  H   ILE A   4     -31.387  13.155 -20.822  0.00  0.00    +0.150 HD
BRANCH  56  60
ATOM     60  CA  ALA A   3     -29.761  11.598 -19.612  0.00  0.00    +0.149 C 
ATOM     61  CB  ALA A   3     -28.635  11.093 -18.714  0.00  0.00    +0.031 C 
BRANCH  60  63
ATOM     62  C   PRO A   2     -31.100  10.658 -21.418  0.00  0.00    +0.241 C 
ATOM     63  N   ALA A   3     -29.944  10.700 -20.760  0.00  0.00    -0.297 N 
ATOM     64  H   ALA A   3     -29.159  10.088 -21.063  0.00  0.00    +0.150 HD
ATOM     65  O   PRO A   2     -32.056  11.396 -21.150  0.00  0.00    -0.273 OA
BRANCH  62  69
ATOM     66  C   PHE A   1     -33.536   9.170 -22.373  0.00  0.00    +0.242 C 
ATOM     67  O   PHE A   1     -33.305   8.336 -21.489  0.00  0.00    -0.273 OA
ATOM     68  N   PRO A   2     -32.563   9.725 -23.094  0.00  0.00    -0.272 N 
ATOM     69  CA  PRO A   2     -31.221   9.648 -22.547  0.00  0.00    +0.152 C 
ATOM     70  CB  PRO A   2     -30.326  10.026 -23.724  0.00  0.00    +0.031 C 
ATOM     71  CG  PRO A   2     -31.170  10.801 -24.643  0.00  0.00    +0.024 C 
ATOM     72  CD  PRO A   2     -32.629  10.531 -24.322  0.00  0.00    +0.094 C 
BRANCH  66  73
ATOM     73  CA  PHE A   1     -34.960   9.623 -22.651  0.00  0.00    +0.149 C 
BRANCH  73  74
ATOM     74  N   PHE A   1     -35.721   8.468 -23.078  0.00  0.00    -0.238 NA
ATOM     75  H   PHE A   1     -35.997   7.770 -22.359  0.00  0.00    +0.142 HD
ENDBRANCH  73  74
BRANCH  73  76
ATOM     76  CB  PHE A   1     -35.492  10.179 -21.331  0.00  0.00    +0.053 C 
BRANCH  76  77
ATOM     77  CG  PHE A   1     -36.817  10.880 -21.432  0.00  0.00    -0.020 A 
ATOM     78  CD2 PHE A   1     -37.992  10.217 -21.128  0.00  0.00    -0.004 A 
ATOM     79  CE2 PHE A   1     -39.208  10.852 -21.180  0.00  0.00    -0.000 A 
ATOM     80  CZ  PHE A   1     -39.264  12.176 -21.521  0.00  0.00    -0.000 A 
ATOM     81  CE1 PHE A   1     -38.096  12.850 -21.838  0.00  0.00    -0.000 A 
ATOM     82  CD1 PHE A   1     -36.884  12.212 -21.775  0.00  0.00    -0.004 A 
ENDBRANCH  76  77
ENDBRANCH  73  76
ENDBRANCH  66  73
ENDBRANCH  62  69
ENDBRANCH  60  63
ENDBRANCH  56  60
ENDBRANCH  55  58
BRANCH  55  83
ATOM     83  CB  ILE A   4     -31.608  15.501 -21.980  0.00  0.00    +0.027 C 
ATOM     84  CG2 ILE A   4     -31.883  14.675 -23.246  0.00  0.00    +0.002 C 
BRANCH  83  85
ATOM     85  CG1 ILE A   4     -32.838  15.477 -21.058  0.00  0.00    +0.002 C 
ATOM     86  CD1 ILE A   4     -34.074  16.147 -21.654  0.00  0.00    +0.000 C 
ENDBRANCH  83  85
ENDBRANCH  55  83
ENDBRANCH  51  55
ENDBRANCH  50  53
ENDBRANCH  46  50
ENDBRANCH   1  48
BRANCH   1  87
ATOM     87  CB  THR A   6     -26.408  14.385 -17.164  0.00  0.00    +0.137 C 
ATOM     88  CG2 THR A   6     -27.760  14.350 -16.473  0.00  0.00    +0.034 C 
BRANCH  87  89
ATOM     89  OG1 THR A   6     -26.401  13.460 -18.257  0.00  0.00    -0.382 OA
ATOM     90  HG1 THR A   6     -27.090  13.725 -18.917  0.00  0.00    +0.210 HD
ENDBRANCH  87  89
ENDBRANCH   1  87
TORSDOF 33
REMARK  Name = ../refined-set-2016/3q71/3q71_pocket.pdb
REMARK  207 active torsions:
REMARK  status: ('A' for Active; 'I' for Inactive)
REMARK    1  A    between atoms: _1  and  _3
REMARK    2  A    between atoms: _3  and  _4
REMARK    3  A    between atoms: _3  and  _6
REMARK    4  A    between atoms: _9  and  _11
REMARK    5  A    between atoms: _11  and  _12
REMARK    6  A    between atoms: _11  and  _14
REMARK    7  A    between atoms: _14  and  _15
REMARK    8  A    between atoms: _15  and  _16
REMARK    9  A    between atoms: _16  and  _17
REMARK   10  A    between atoms: _17  and  _18
REMARK   11  A    between atoms: _22  and  _24
REMARK   12  A    between atoms: _24  and  _25
REMARK   13  A    between atoms: _24  and  _27
REMARK   14  A    between atoms: _27  and  _28
REMARK   15  A    between atoms: _28  and  _29
REMARK   16  A    between atoms: _32  and  _34
REMARK   17  A    between atoms: _34  and  _35
REMARK   18  A    between atoms: _37  and  _39
REMARK   19  A    between atoms: _39  and  _40
REMARK   20  A    between atoms: _39  and  _42
REMARK   21  A    between atoms: _45  and  _47
REMARK   22  A    between atoms: _47  and  _48
REMARK   23  A    between atoms: _47  and  _50
REMARK   24  A    between atoms: _50  and  _51
REMARK   25  A    between atoms: _51  and  _52
REMARK   26  A    between atoms: _57  and  _59
REMARK   27  A    between atoms: _59  and  _60
REMARK   28  A    between atoms: _59  and  _62
REMARK   29  A    between atoms: _62  and  _63
REMARK   30  A    between atoms: _68  and  _70
REMARK   31  A    between atoms: _70  and  _71
REMARK   32  A    between atoms: _74  and  _76
REMARK   33  A    between atoms: _76  and  _77
REMARK   34  A    between atoms: _76  and  _79
REMARK   35  A    between atoms: _79  and  _80
REMARK   36  A    between atoms: _85  and  _87
REMARK   37  A    between atoms: _87  and  _88
REMARK   38  A    between atoms: _87  and  _90
REMARK   39  A    between atoms: _90  and  _91
REMARK   40  A    between atoms: _93  and  _95
REMARK   41  A    between atoms: _95  and  _96
REMARK   42  A    between atoms: _95  and  _98
REMARK   43  A    between atoms: _102  and  _103
REMARK   44  A    between atoms: _108  and  _110
REMARK   45  A    between atoms: _110  and  _111
REMARK   46  A    between atoms: _110  and  _113
REMARK   47  A    between atoms: _113  and  _114
REMARK   48  A    between atoms: _117  and  _119
REMARK   49  A    between atoms: _119  and  _120
REMARK   50  A    between atoms: _119  and  _122
REMARK   51  A    between atoms: _122  and  _123
REMARK   52  A    between atoms: _126  and  _128
REMARK   53  A    between atoms: _128  and  _129
REMARK   54  A    between atoms: _128  and  _131
REMARK   55  A    between atoms: _131  and  _132
REMARK   56  A    between atoms: _135  and  _137
REMARK   57  A    between atoms: _137  and  _138
REMARK   58  A    between atoms: _137  and  _140
REMARK   59  A    between atoms: _143  and  _145
REMARK   60  A    between atoms: _145  and  _146
REMARK   61  A    between atoms: _145  and  _148
REMARK   62  A    between atoms: _148  and  _149
REMARK   63  A    between atoms: _152  and  _154
REMARK   64  A    between atoms: _154  and  _155
REMARK   65  A    between atoms: _154  and  _157
REMARK   66  A    between atoms: _157  and  _158
REMARK   67  A    between atoms: _160  and  _162
REMARK   68  A    between atoms: _162  and  _163
REMARK   69  A    between atoms: _162  and  _165
REMARK   70  A    between atoms: _165  and  _166
REMARK   71  A    between atoms: _166  and  _167
REMARK   72  A    between atoms: _167  and  _168
REMARK   73  A    between atoms: _177  and  _179
REMARK   74  A    between atoms: _179  and  _180
REMARK   75  A    between atoms: _183  and  _184
REMARK   76  A    between atoms: _189  and  _191
REMARK   77  A    between atoms: _191  and  _192
REMARK   78  A    between atoms: _191  and  _194
REMARK   79  A    between atoms: _194  and  _195
REMARK   80  A    between atoms: _198  and  _200
REMARK   81  A    between atoms: _200  and  _201
REMARK   82  A    between atoms: _200  and  _203
REMARK   83  A    between atoms: _203  and  _204
REMARK   84  A    between atoms: _206  and  _208
REMARK   85  A    between atoms: _208  and  _209
REMARK   86  A    between atoms: _208  and  _211
REMARK   87  A    between atoms: _211  and  _212
REMARK   88  A    between atoms: _212  and  _213
REMARK   89  A    between atoms: _213  and  _214
REMARK   90  A    between atoms: _214  and  _215
REMARK   91  A    between atoms: _219  and  _221
REMARK   92  A    between atoms: _221  and  _222
REMARK   93  A    between atoms: _221  and  _224
REMARK   94  A    between atoms: _224  and  _225
REMARK   95  A    between atoms: _227  and  _229
REMARK   96  A    between atoms: _229  and  _230
REMARK   97  A    between atoms: _229  and  _232
REMARK   98  A    between atoms: _232  and  _233
REMARK   99  A    between atoms: _236  and  _238
REMARK  100  A    between atoms: _238  and  _239
REMARK  101  A    between atoms: _238  and  _241
REMARK  102  A    between atoms: _244  and  _246
REMARK  103  A    between atoms: _246  and  _247
REMARK  104  A    between atoms: _246  and  _249
REMARK  105  A    between atoms: _252  and  _254
REMARK  106  A    between atoms: _254  and  _255
REMARK  107  A    between atoms: _259  and  _260
REMARK  108  A    between atoms: _265  and  _267
REMARK  109  A    between atoms: _267  and  _268
REMARK  110  A    between atoms: _267  and  _270
REMARK  111  A    between atoms: _270  and  _271
REMARK  112  A    between atoms: _271  and  _272
REMARK  113  A    between atoms: _275  and  _277
REMARK  114  A    between atoms: _277  and  _278
REMARK  115  A    between atoms: _277  and  _280
REMARK  116  A    between atoms: _280  and  _281
REMARK  117  A    between atoms: _291  and  _293
REMARK  118  A    between atoms: _293  and  _294
REMARK  119  A    between atoms: _293  and  _296
REMARK  120  A    between atoms: _296  and  _297
REMARK  121  A    between atoms: _297  and  _298
REMARK  122  A    between atoms: _300  and  _302
REMARK  123  A    between atoms: _302  and  _303
REMARK  124  A    between atoms: _302  and  _305
REMARK  125  A    between atoms: _305  and  _306
REMARK  126  A    between atoms: _313  and  _314
REMARK  127  A    between atoms: _319  and  _321
REMARK  128  A    between atoms: _321  and  _322
REMARK  129  A    between atoms: _325  and  _327
REMARK  130  A    between atoms: _327  and  _328
REMARK  131  A    between atoms: _327  and  _330
REMARK  132  A    between atoms: _330  and  _331
REMARK  133  A    between atoms: _334  and  _336
REMARK  134  A    between atoms: _336  and  _337
REMARK  135  A    between atoms: _339  and  _341
REMARK  136  A    between atoms: _341  and  _342
REMARK  137  A    between atoms: _341  and  _344
REMARK  138  A    between atoms: _344  and  _345
REMARK  139  A    between atoms: _348  and  _350
REMARK  140  A    between atoms: _350  and  _351
REMARK  141  A    between atoms: _353  and  _355
REMARK  142  A    between atoms: _355  and  _356
REMARK  143  A    between atoms: _355  and  _358
REMARK  144  A    between atoms: _358  and  _359
REMARK  145  A    between atoms: _364  and  _366
REMARK  146  A    between atoms: _366  and  _367
REMARK  147  A    between atoms: _366  and  _369
REMARK  148  A    between atoms: _369  and  _370
REMARK  149  A    between atoms: _373  and  _375
REMARK  150  A    between atoms: _375  and  _376
REMARK  151  A    between atoms: _378  and  _380
REMARK  152  A    between atoms: _380  and  _381
REMARK  153  A    between atoms: _380  and  _383
REMARK  154  A    between atoms: _383  and  _384
REMARK  155  A    between atoms: _390  and  _392
REMARK  156  A    between atoms: _392  and  _393
REMARK  157  A    between atoms: _392  and  _395
REMARK  158  A    between atoms: _395  and  _396
REMARK  159  A    between atoms: _396  and  _397
REMARK  160  A    between atoms: _397  and  _398
REMARK  161  A    between atoms: _398  and  _399
REMARK  162  A    between atoms: _403  and  _405
REMARK  163  A    between atoms: _405  and  _406
REMARK  164  A    between atoms: _405  and  _408
REMARK  165  A    between atoms: _408  and  _409
REMARK  166  A    between atoms: _415  and  _417
REMARK  167  A    between atoms: _417  and  _418
REMARK  168  A    between atoms: _417  and  _420
REMARK  169  A    between atoms: _420  and  _421
REMARK  170  A    between atoms: _424  and  _426
REMARK  171  A    between atoms: _426  and  _427
REMARK  172  A    between atoms: _426  and  _429
REMARK  173  A    between atoms: _429  and  _430
REMARK  174  A    between atoms: _433  and  _435
REMARK  175  A    between atoms: _435  and  _436
REMARK  176  A    between atoms: _435  and  _438
REMARK  177  A    between atoms: _438  and  _439
REMARK  178  A    between atoms: _445  and  _446
REMARK  179  A    between atoms: _451  and  _453
REMARK  180  A    between atoms: _453  and  _454
REMARK  181  A    between atoms: _453  and  _456
REMARK  182  A    between atoms: _456  and  _457
REMARK  183  A    between atoms: _459  and  _461
REMARK  184  A    between atoms: _461  and  _462
REMARK  185  A    between atoms: _461  and  _464
REMARK  186  A    between atoms: _464  and  _465
REMARK  187  A    between atoms: _468  and  _470
REMARK  188  A    between atoms: _470  and  _471
REMARK  189  A    between atoms: _470  and  _473
REMARK  190  A    between atoms: _473  and  _474
REMARK  191  A    between atoms: _479  and  _481
REMARK  192  A    between atoms: _481  and  _482
REMARK  193  A    between atoms: _481  and  _484
REMARK  194  A    between atoms: _484  and  _485
REMARK  195  A    between atoms: _485  and  _486
REMARK  196  A    between atoms: _489  and  _491
REMARK  197  A    between atoms: _491  and  _492
REMARK  198  A    between atoms: _491  and  _494
REMARK  199  A    between atoms: _494  and  _495
REMARK  200  A    between atoms: _500  and  _502
REMARK  201  A    between atoms: _502  and  _503
REMARK  202  A    between atoms: _502  and  _505
REMARK  203  A    between atoms: _505  and  _506
REMARK  204  A    between atoms: _509  and  _511
REMARK  205  A    between atoms: _511  and  _512
REMARK  206  A    between atoms: _511  and  _514
REMARK  207  A    between atoms: _514  and  _515
REMARK                            x       y       z     vdW  Elec       q    Type
REMARK                         _______ _______ _______ _____ _____    ______ ____
ROOT
ATOM      1  CG  LYS A   1     -24.708  12.516 -14.333  0.00  0.00    -0.000 C 
ENDROOT
BRANCH   1   2
ATOM      2  CB  LYS A   1     -25.336  12.030 -13.041  0.00  0.00    +0.025 C 
BRANCH   2   3
ATOM      3  CA  LYS A   1     -26.382  13.015 -12.546  0.00  0.00    +0.133 C 
BRANCH   3   4
ATOM      4  N   LYS A   1     -25.716  14.228 -12.110  0.00  0.00    -0.239 NA
ATOM      5  H   LYS A   1     -24.695  14.206 -11.915  0.00  0.00    +0.142 HD
ENDBRANCH   3   4
BRANCH   3   6
ATOM      6  C   LYS A   1     -27.336  12.401 -11.508  0.00  0.00    +0.224 C 
ATOM      7  O   LYS A   1     -28.425  11.921 -11.868  0.00  0.00    -0.287 OA
ENDBRANCH   3   6
ENDBRANCH   2   3
ENDBRANCH   1   2
BRANCH   1   8
ATOM      8  CD  LYS A   1     -23.470  11.750 -14.722  0.00  0.00    -0.024 C 
BRANCH   8   9
ATOM      9  CE  LYS A   1     -22.959  12.242 -16.081  0.00  0.00    -0.086 C 
BRANCH   9  10
ATOM     10  NZ  LYS A   1     -21.800  11.464 -16.602  0.00  0.00    +0.380 N 
ATOM     11  HZ1 LYS A   1     -21.009  11.531 -15.930  0.00  0.00    -0.089 HD
ATOM     12  HZ2 LYS A   1     -22.076  10.468 -16.716  0.00  0.00    -0.089 HD
ATOM     13  HZ3 LYS A   1     -21.509  11.852 -17.522  0.00  0.00    -0.089 HD
ENDBRANCH   9  10
ENDBRANCH   8   9
ENDBRANCH   1   8
TORSDOF 7
REMARK  Name = ../refined-set-2016/3q71/3q71_pocket.pdb
REMARK  207 active torsions:
REMARK  status: ('A' for Active; 'I' for Inactive)
REMARK    1  A    between atoms: _1  and  _3
REMARK    2  A    between atoms: _3  and  _4
REMARK    3  A    between atoms: _3  and  _6
REMARK    4  A    between atoms: _9  and  _11
REMARK    5  A    between atoms: _11  and  _12
REMARK    6  A    between atoms: _11  and  _14
REMARK    7  A    between atoms: _14  and  _15
REMARK    8  A    between atoms: _15  and  _16
REMARK    9  A    between atoms: _16  and  _17
REMARK   10  A    between atoms: _17  and  _18
REMARK   11  A    between atoms: _22  and  _24
REMARK   12  A    between atoms: _24  and  _25
REMARK   13  A    between atoms: _24  and  _27
REMARK   14  A    between atoms: _27  and  _28
REMARK   15  A    between atoms: _28  and  _29
REMARK   16  A    between atoms: _32  and  _34
REMARK   17  A    between atoms: _34  and  _35
REMARK   18  A    between atoms: _37  and  _39
REMARK   19  A    between atoms: _39  and  _40
REMARK   20  A    between atoms: _39  and  _42
REMARK   21  A    between atoms: _45  and  _47
REMARK   22  A    between atoms: _47  and  _48
REMARK   23  A    between atoms: _47  and  _50
REMARK   24  A    between atoms: _50  and  _51
REMARK   25  A    between atoms: _51  and  _52
REMARK   26  A    between atoms: _57  and  _59
REMARK   27  A    between atoms: _59  and  _60
REMARK   28  A    between atoms: _59  and  _62
REMARK   29  A    between atoms: _62  and  _63
REMARK   30  A    between atoms: _68  and  _70
REMARK   31  A    between atoms: _70  and  _71
REMARK   32  A    between atoms: _74  and  _76
REMARK   33  A    between atoms: _76  and  _77
REMARK   34  A    between atoms: _76  and  _79
REMARK   35  A    between atoms: _79  and  _80
REMARK   36  A    between atoms: _85  and  _87
REMARK   37  A    between atoms: _87  and  _88
REMARK   38  A    between atoms: _87  and  _90
REMARK   39  A    between atoms: _90  and  _91
REMARK   40  A    between atoms: _93  and  _95
REMARK   41  A    between atoms: _95  and  _96
REMARK   42  A    between atoms: _95  and  _98
REMARK   43  A    between atoms: _102  and  _103
REMARK   44  A    between atoms: _108  and  _110
REMARK   45  A    between atoms: _110  and  _111
REMARK   46  A    between atoms: _110  and  _113
REMARK   47  A    between atoms: _113  and  _114
REMARK   48  A    between atoms: _117  and  _119
REMARK   49  A    between atoms: _119  and  _120
REMARK   50  A    between atoms: _119  and  _122
REMARK   51  A    between atoms: _122  and  _123
REMARK   52  A    between atoms: _126  and  _128
REMARK   53  A    between atoms: _128  and  _129
REMARK   54  A    between atoms: _128  and  _131
REMARK   55  A    between atoms: _131  and  _132
REMARK   56  A    between atoms: _135  and  _137
REMARK   57  A    between atoms: _137  and  _138
REMARK   58  A    between atoms: _137  and  _140
REMARK   59  A    between atoms: _143  and  _145
REMARK   60  A    between atoms: _145  and  _146
REMARK   61  A    between atoms: _145  and  _148
REMARK   62  A    between atoms: _148  and  _149
REMARK   63  A    between atoms: _152  and  _154
REMARK   64  A    between atoms: _154  and  _155
REMARK   65  A    between atoms: _154  and  _157
REMARK   66  A    between atoms: _157  and  _158
REMARK   67  A    between atoms: _160  and  _162
REMARK   68  A    between atoms: _162  and  _163
REMARK   69  A    between atoms: _162  and  _165
REMARK   70  A    between atoms: _165  and  _166
REMARK   71  A    between atoms: _166  and  _167
REMARK   72  A    between atoms: _167  and  _168
REMARK   73  A    between atoms: _177  and  _179
REMARK   74  A    between atoms: _179  and  _180
REMARK   75  A    between atoms: _183  and  _184
REMARK   76  A    between atoms: _189  and  _191
REMARK   77  A    between atoms: _191  and  _192
REMARK   78  A    between atoms: _191  and  _194
REMARK   79  A    between atoms: _194  and  _195
REMARK   80  A    between atoms: _198  and  _200
REMARK   81  A    between atoms: _200  and  _201
REMARK   82  A    between atoms: _200  and  _203
REMARK   83  A    between atoms: _203  and  _204
REMARK   84  A    between atoms: _206  and  _208
REMARK   85  A    between atoms: _208  and  _209
REMARK   86  A    between atoms: _208  and  _211
REMARK   87  A    between atoms: _211  and  _212
REMARK   88  A    between atoms: _212  and  _213
REMARK   89  A    between atoms: _213  and  _214
REMARK   90  A    between atoms: _214  and  _215
REMARK   91  A    between atoms: _219  and  _221
REMARK   92  A    between atoms: _221  and  _222
REMARK   93  A    between atoms: _221  and  _224
REMARK   94  A    between atoms: _224  and  _225
REMARK   95  A    between atoms: _227  and  _229
REMARK   96  A    between atoms: _229  and  _230
REMARK   97  A    between atoms: _229  and  _232
REMARK   98  A    between atoms: _232  and  _233
REMARK   99  A    between atoms: _236  and  _238
REMARK  100  A    between atoms: _238  and  _239
REMARK  101  A    between atoms: _238  and  _241
REMARK  102  A    between atoms: _244  and  _246
REMARK  103  A    between atoms: _246  and  _247
REMARK  104  A    between atoms: _246  and  _249
REMARK  105  A    between atoms: _252  and  _254
REMARK  106  A    between atoms: _254  and  _255
REMARK  107  A    between atoms: _259  and  _260
REMARK  108  A    between atoms: _265  and  _267
REMARK  109  A    between atoms: _267  and  _268
REMARK  110  A    between atoms: _267  and  _270
REMARK  111  A    between atoms: _270  and  _271
REMARK  112  A    between atoms: _271  and  _272
REMARK  113  A    between atoms: _275  and  _277
REMARK  114  A    between atoms: _277  and  _278
REMARK  115  A    between atoms: _277  and  _280
REMARK  116  A    between atoms: _280  and  _281
REMARK  117  A    between atoms: _291  and  _293
REMARK  118  A    between atoms: _293  and  _294
REMARK  119  A    between atoms: _293  and  _296
REMARK  120  A    between atoms: _296  and  _297
REMARK  121  A    between atoms: _297  and  _298
REMARK  122  A    between atoms: _300  and  _302
REMARK  123  A    between atoms: _302  and  _303
REMARK  124  A    between atoms: _302  and  _305
REMARK  125  A    between atoms: _305  and  _306
REMARK  126  A    between atoms: _313  and  _314
REMARK  127  A    between atoms: _319  and  _321
REMARK  128  A    between atoms: _321  and  _322
REMARK  129  A    between atoms: _325  and  _327
REMARK  130  A    between atoms: _327  and  _328
REMARK  131  A    between atoms: _327  and  _330
REMARK  132  A    between atoms: _330  and  _331
REMARK  133  A    between atoms: _334  and  _336
REMARK  134  A    between atoms: _336  and  _337
REMARK  135  A    between atoms: _339  and  _341
REMARK  136  A    between atoms: _341  and  _342
REMARK  137  A    between atoms: _341  and  _344
REMARK  138  A    between atoms: _344  and  _345
REMARK  139  A    between atoms: _348  and  _350
REMARK  140  A    between atoms: _350  and  _351
REMARK  141  A    between atoms: _353  and  _355
REMARK  142  A    between atoms: _355  and  _356
REMARK  143  A    between atoms: _355  and  _358
REMARK  144  A    between atoms: _358  and  _359
REMARK  145  A    between atoms: _364  and  _366
REMARK  146  A    between atoms: _366  and  _367
REMARK  147  A    between atoms: _366  and  _369
REMARK  148  A    between atoms: _369  and  _370
REMARK  149  A    between atoms: _373  and  _375
REMARK  150  A    between atoms: _375  and  _376
REMARK  151  A    between atoms: _378  and  _380
REMARK  152  A    between atoms: _380  and  _381
REMARK  153  A    between atoms: _380  and  _383
REMARK  154  A    between atoms: _383  and  _384
REMARK  155  A    between atoms: _390  and  _392
REMARK  156  A    between atoms: _392  and  _393
REMARK  157  A    between atoms: _392  and  _395
REMARK  158  A    between atoms: _395  and  _396
REMARK  159  A    between atoms: _396  and  _397
REMARK  160  A    between atoms: _397  and  _398
REMARK  161  A    between atoms: _398  and  _399
REMARK  162  A    between atoms: _403  and  _405
REMARK  163  A    between atoms: _405  and  _406
REMARK  164  A    between atoms: _405  and  _408
REMARK  165  A    between atoms: _408  and  _409
REMARK  166  A    between atoms: _415  and  _417
REMARK  167  A    between atoms: _417  and  _418
REMARK  168  A    between atoms: _417  and  _420
REMARK  169  A    between atoms: _420  and  _421
REMARK  170  A    between atoms: _424  and  _426
REMARK  171  A    between atoms: _426  and  _427
REMARK  172  A    between atoms: _426  and  _429
REMARK  173  A    between atoms: _429  and  _430
REMARK  174  A    between atoms: _433  and  _435
REMARK  175  A    between atoms: _435  and  _436
REMARK  176  A    between atoms: _435  and  _438
REMARK  177  A    between atoms: _438  and  _439
REMARK  178  A    between atoms: _445  and  _446
REMARK  179  A    between atoms: _451  and  _453
REMARK  180  A    between atoms: _453  and  _454
REMARK  181  A    between atoms: _453  and  _456
REMARK  182  A    between atoms: _456  and  _457
REMARK  183  A    between atoms: _459  and  _461
REMARK  184  A    between atoms: _461  and  _462
REMARK  185  A    between atoms: _461  and  _464
REMARK  186  A    between atoms: _464  and  _465
REMARK  187  A    between atoms: _468  and  _470
REMARK  188  A    between atoms: _470  and  _471
REMARK  189  A    between atoms: _470  and  _473
REMARK  190  A    between atoms: _473  and  _474
REMARK  191  A    between atoms: _479  and  _481
REMARK  192  A    between atoms: _481  and  _482
REMARK  193  A    between atoms: _481  and  _484
REMARK  194  A    between atoms: _484  and  _485
REMARK  195  A    between atoms: _485  and  _486
REMARK  196  A    between atoms: _489  and  _491
REMARK  197  A    between atoms: _491  and  _492
REMARK  198  A    between atoms: _491  and  _494
REMARK  199  A    between atoms: _494  and  _495
REMARK  200  A    between atoms: _500  and  _502
REMARK  201  A    between atoms: _502  and  _503
REMARK  202  A    between atoms: _502  and  _505
REMARK  203  A    between atoms: _505  and  _506
REMARK  204  A    between atoms: _509  and  _511
REMARK  205  A    between atoms: _511  and  _512
REMARK  206  A    between atoms: _511  and  _514
REMARK  207  A    between atoms: _514  and  _515
REMARK                            x       y       z     vdW  Elec       q    Type
REMARK                         _______ _______ _______ _____ _____    ______ ____
ROOT
ATOM      1  CB  PHE A   1     -30.310  14.485 -14.090  0.00  0.00    +0.051 C 
ENDROOT
BRANCH   1   2
ATOM      2  CG  PHE A   1     -31.167  14.328 -15.309  0.00  0.00    -0.020 A 
ATOM      3  CD2 PHE A   1     -31.874  15.414 -15.808  0.00  0.00    -0.004 A 
ATOM      4  CE2 PHE A   1     -32.714  15.266 -16.901  0.00  0.00    -0.000 A 
ATOM      5  CZ  PHE A   1     -32.854  14.022 -17.497  0.00  0.00    -0.000 A 
ATOM      6  CE1 PHE A   1     -32.167  12.930 -16.990  0.00  0.00    -0.000 A 
ATOM      7  CD1 PHE A   1     -31.344  13.080 -15.896  0.00  0.00    -0.004 A 
ENDBRANCH   1   2
BRANCH   1   8
ATOM      8  CA  PHE A   1     -31.136  14.475 -12.804  0.00  0.00    +0.137 C 
BRANCH   8   9
ATOM      9  N   PHE A   1     -30.339  14.718 -11.606  0.00  0.00    -0.239 NA
ATOM     10  H   PHE A   1     -29.302  14.766 -11.665  0.00  0.00    +0.142 HD
ENDBRANCH   8   9
BRANCH   8  11
ATOM     11  C   PHE A   1     -31.949  13.174 -12.720  0.00  0.00    +0.224 C 
ATOM     12  O   PHE A   1     -33.127  13.146 -13.095  0.00  0.00    -0.287 OA
ENDBRANCH   8  11
ENDBRANCH   1   8
TORSDOF 4
REMARK  Name = ../refined-set-2016/3q71/3q71_pocket.pdb
REMARK  207 active torsions:
REMARK  status: ('A' for Active; 'I' for Inactive)
REMARK    1  A    between atoms: _1  and  _3
REMARK    2  A    between atoms: _3  and  _4
REMARK    3  A    between atoms: _3  and  _6
REMARK    4  A    between atoms: _9  and  _11
REMARK    5  A    between atoms: _11  and  _12
REMARK    6  A    between atoms: _11  and  _14
REMARK    7  A    between atoms: _14  and  _15
REMARK    8  A    between atoms: _15  and  _16
REMARK    9  A    between atoms: _16  and  _17
REMARK   10  A    between atoms: _17  and  _18
REMARK   11  A    between atoms: _22  and  _24
REMARK   12  A    between atoms: _24  and  _25
REMARK   13  A    between atoms: _24  and  _27
REMARK   14  A    between atoms: _27  and  _28
REMARK   15  A    between atoms: _28  and  _29
REMARK   16  A    between atoms: _32  and  _34
REMARK   17  A    between atoms: _34  and  _35
REMARK   18  A    between atoms: _37  and  _39
REMARK   19  A    between atoms: _39  and  _40
REMARK   20  A    between atoms: _39  and  _42
REMARK   21  A    between atoms: _45  and  _47
REMARK   22  A    between atoms: _47  and  _48
REMARK   23  A    between atoms: _47  and  _50
REMARK   24  A    between atoms: _50  and  _51
REMARK   25  A    between atoms: _51  and  _52
REMARK   26  A    between atoms: _57  and  _59
REMARK   27  A    between atoms: _59  and  _60
REMARK   28  A    between atoms: _59  and  _62
REMARK   29  A    between atoms: _62  and  _63
REMARK   30  A    between atoms: _68  and  _70
REMARK   31  A    between atoms: _70  and  _71
REMARK   32  A    between atoms: _74  and  _76
REMARK   33  A    between atoms: _76  and  _77
REMARK   34  A    between atoms: _76  and  _79
REMARK   35  A    between atoms: _79  and  _80
REMARK   36  A    between atoms: _85  and  _87
REMARK   37  A    between atoms: _87  and  _88
REMARK   38  A    between atoms: _87  and  _90
REMARK   39  A    between atoms: _90  and  _91
REMARK   40  A    between atoms: _93  and  _95
REMARK   41  A    between atoms: _95  and  _96
REMARK   42  A    between atoms: _95  and  _98
REMARK   43  A    between atoms: _102  and  _103
REMARK   44  A    between atoms: _108  and  _110
REMARK   45  A    between atoms: _110  and  _111
REMARK   46  A    between atoms: _110  and  _113
REMARK   47  A    between atoms: _113  and  _114
REMARK   48  A    between atoms: _117  and  _119
REMARK   49  A    between atoms: _119  and  _120
REMARK   50  A    between atoms: _119  and  _122
REMARK   51  A    between atoms: _122  and  _123
REMARK   52  A    between atoms: _126  and  _128
REMARK   53  A    between atoms: _128  and  _129
REMARK   54  A    between atoms: _128  and  _131
REMARK   55  A    between atoms: _131  and  _132
REMARK   56  A    between atoms: _135  and  _137
REMARK   57  A    between atoms: _137  and  _138
REMARK   58  A    between atoms: _137  and  _140
REMARK   59  A    between atoms: _143  and  _145
REMARK   60  A    between atoms: _145  and  _146
REMARK   61  A    between atoms: _145  and  _148
REMARK   62  A    between atoms: _148  and  _149
REMARK   63  A    between atoms: _152  and  _154
REMARK   64  A    between atoms: _154  and  _155
REMARK   65  A    between atoms: _154  and  _157
REMARK   66  A    between atoms: _157  and  _158
REMARK   67  A    between atoms: _160  and  _162
REMARK   68  A    between atoms: _162  and  _163
REMARK   69  A    between atoms: _162  and  _165
REMARK   70  A    between atoms: _165  and  _166
REMARK   71  A    between atoms: _166  and  _167
REMARK   72  A    between atoms: _167  and  _168
REMARK   73  A    between atoms: _177  and  _179
REMARK   74  A    between atoms: _179  and  _180
REMARK   75  A    between atoms: _183  and  _184
REMARK   76  A    between atoms: _189  and  _191
REMARK   77  A    between atoms: _191  and  _192
REMARK   78  A    between atoms: _191  and  _194
REMARK   79  A    between atoms: _194  and  _195
REMARK   80  A    between atoms: _198  and  _200
REMARK   81  A    between atoms: _200  and  _201
REMARK   82  A    between atoms: _200  and  _203
REMARK   83  A    between atoms: _203  and  _204
REMARK   84  A    between atoms: _206  and  _208
REMARK   85  A    between atoms: _208  and  _209
REMARK   86  A    between atoms: _208  and  _211
REMARK   87  A    between atoms: _211  and  _212
REMARK   88  A    between atoms: _212  and  _213
REMARK   89  A    between atoms: _213  and  _214
REMARK   90  A    between atoms: _214  and  _215
REMARK   91  A    between atoms: _219  and  _221
REMARK   92  A    between atoms: _221  and  _222
REMARK   93  A    between atoms: _221  and  _224
REMARK   94  A    between atoms: _224  and  _225
REMARK   95  A    between atoms: _227  and  _229
REMARK   96  A    between atoms: _229  and  _230
REMARK   97  A    between atoms: _229  and  _232
REMARK   98  A    between atoms: _232  and  _233
REMARK   99  A    between atoms: _236  and  _238
REMARK  100  A    between atoms: _238  and  _239
REMARK  101  A    between atoms: _238  and  _241
REMARK  102  A    between atoms: _244  and  _246
REMARK  103  A    between atoms: _246  and  _247
REMARK  104  A    between atoms: _246  and  _249
REMARK  105  A    between atoms: _252  and  _254
REMARK  106  A    between atoms: _254  and  _255
REMARK  107  A    between atoms: _259  and  _260
REMARK  108  A    between atoms: _265  and  _267
REMARK  109  A    between atoms: _267  and  _268
REMARK  110  A    between atoms: _267  and  _270
REMARK  111  A    between atoms: _270  and  _271
REMARK  112  A    between atoms: _271  and  _272
REMARK  113  A    between atoms: _275  and  _277
REMARK  114  A    between atoms: _277  and  _278
REMARK  115  A    between atoms: _277  and  _280
REMARK  116  A    between atoms: _280  and  _281
REMARK  117  A    between atoms: _291  and  _293
REMARK  118  A    between atoms: _293  and  _294
REMARK  119  A    between atoms: _293  and  _296
REMARK  120  A    between atoms: _296  and  _297
REMARK  121  A    between atoms: _297  and  _298
REMARK  122  A    between atoms: _300  and  _302
REMARK  123  A    between atoms: _302  and  _303
REMARK  124  A    between atoms: _302  and  _305
REMARK  125  A    between atoms: _305  and  _306
REMARK  126  A    between atoms: _313  and  _314
REMARK  127  A    between atoms: _319  and  _321
REMARK  128  A    between atoms: _321  and  _322
REMARK  129  A    between atoms: _325  and  _327
REMARK  130  A    between atoms: _327  and  _328
REMARK  131  A    between atoms: _327  and  _330
REMARK  132  A    between atoms: _330  and  _331
REMARK  133  A    between atoms: _334  and  _336
REMARK  134  A    between atoms: _336  and  _337
REMARK  135  A    between atoms: _339  and  _341
REMARK  136  A    between atoms: _341  and  _342
REMARK  137  A    between atoms: _341  and  _344
REMARK  138  A    between atoms: _344  and  _345
REMARK  139  A    between atoms: _348  and  _350
REMARK  140  A    between atoms: _350  and  _351
REMARK  141  A    between atoms: _353  and  _355
REMARK  142  A    between atoms: _355  and  _356
REMARK  143  A    between atoms: _355  and  _358
REMARK  144  A    between atoms: _358  and  _359
REMARK  145  A    between atoms: _364  and  _366
REMARK  146  A    between atoms: _366  and  _367
REMARK  147  A    between atoms: _366  and  _369
REMARK  148  A    between atoms: _369  and  _370
REMARK  149  A    between atoms: _373  and  _375
REMARK  150  A    between atoms: _375  and  _376
REMARK  151  A    between atoms: _378  and  _380
REMARK  152  A    between atoms: _380  and  _381
REMARK  153  A    between atoms: _380  and  _383
REMARK  154  A    between atoms: _383  and  _384
REMARK  155  A    between atoms: _390  and  _392
REMARK  156  A    between atoms: _392  and  _393
REMARK  157  A    between atoms: _392  and  _395
REMARK  158  A    between atoms: _395  and  _396
REMARK  159  A    between atoms: _396  and  _397
REMARK  160  A    between atoms: _397  and  _398
REMARK  161  A    between atoms: _398  and  _399
REMARK  162  A    between atoms: _403  and  _405
REMARK  163  A    between atoms: _405  and  _406
REMARK  164  A    between atoms: _405  and  _408
REMARK  165  A    between atoms: _408  and  _409
REMARK  166  A    between atoms: _415  and  _417
REMARK  167  A    between atoms: _417  and  _418
REMARK  168  A    between atoms: _417  and  _420
REMARK  169  A    between atoms: _420  and  _421
REMARK  170  A    between atoms: _424  and  _426
REMARK  171  A    between atoms: _426  and  _427
REMARK  172  A    between atoms: _426  and  _429
REMARK  173  A    between atoms: _429  and  _430
REMARK  174  A    between atoms: _433  and  _435
REMARK  175  A    between atoms: _435  and  _436
REMARK  176  A    between atoms: _435  and  _438
REMARK  177  A    between atoms: _438  and  _439
REMARK  178  A    between atoms: _445  and  _446
REMARK  179  A    between atoms: _451  and  _453
REMARK  180  A    between atoms: _453  and  _454
REMARK  181  A    between atoms: _453  and  _456
REMARK  182  A    between atoms: _456  and  _457
REMARK  183  A    between atoms: _459  and  _461
REMARK  184  A    between atoms: _461  and  _462
REMARK  185  A    between atoms: _461  and  _464
REMARK  186  A    between atoms: _464  and  _465
REMARK  187  A    between atoms: _468  and  _470
REMARK  188  A    between atoms: _470  and  _471
REMARK  189  A    between atoms: _470  and  _473
REMARK  190  A    between atoms: _473  and  _474
REMARK  191  A    between atoms: _479  and  _481
REMARK  192  A    between atoms: _481  and  _482
REMARK  193  A    between atoms: _481  and  _484
REMARK  194  A    between atoms: _484  and  _485
REMARK  195  A    between atoms: _485  and  _486
REMARK  196  A    between atoms: _489  and  _491
REMARK  197  A    between atoms: _491  and  _492
REMARK  198  A    between atoms: _491  and  _494
REMARK  199  A    between atoms: _494  and  _495
REMARK  200  A    between atoms: _500  and  _502
REMARK  201  A    between atoms: _502  and  _503
REMARK  202  A    between atoms: _502  and  _505
REMARK  203  A    between atoms: _505  and  _506
REMARK  204  A    between atoms: _509  and  _511
REMARK  205  A    between atoms: _511  and  _512
REMARK  206  A    between atoms: _511  and  _514
REMARK  207  A    between atoms: _514  and  _515
REMARK                            x       y       z     vdW  Elec       q    Type
REMARK                         _______ _______ _______ _____ _____    ______ ____
ROOT
ATOM      1  CA  ASP A   6     -21.425   6.469 -18.531  0.00  0.00    +0.160 C 
ENDROOT
BRANCH   1   4
ATOM      2  C   SER A   5     -19.771   4.977 -19.506  0.00  0.00    +0.243 C 
ATOM      3  O   SER A   5     -18.902   5.424 -18.762  0.00  0.00    -0.273 OA
ATOM      4  N   ASP A   6     -21.029   5.404 -19.453  0.00  0.00    -0.296 N 
ATOM      5  H   ASP A   6     -21.742   4.975 -20.076  0.00  0.00    +0.150 HD
BRANCH   2   6
ATOM      6  CA  SER A   5     -19.420   3.899 -20.529  0.00  0.00    +0.178 C 
BRANCH   6   9
ATOM      7  C   PRO A   4     -21.282   2.344 -20.769  0.00  0.00    +0.241 C 
ATOM      8  O   PRO A   4     -21.005   1.758 -19.736  0.00  0.00    -0.273 OA
ATOM      9  N   SER A   5     -20.580   3.375 -21.240  0.00  0.00    -0.295 N 
ATOM     10  H   SER A   5     -20.867   3.816 -22.137  0.00  0.00    +0.150 HD
BRANCH   7  14
ATOM     11  C   HIS A   3     -23.633   4.067 -21.666  0.00  0.00    +0.244 C 
ATOM     12  O   HIS A   3     -23.394   4.298 -20.487  0.00  0.00    -0.273 OA
ATOM     13  N   PRO A   4     -23.211   2.943 -22.284  0.00  0.00    -0.272 N 
ATOM     14  CA  PRO A   4     -22.479   1.888 -21.570  0.00  0.00    +0.152 C 
ATOM     15  CB  PRO A   4     -22.024   0.955 -22.696  0.00  0.00    +0.031 C 
ATOM     16  CG  PRO A   4     -23.126   1.057 -23.672  0.00  0.00    +0.024 C 
ATOM     17  CD  PRO A   4     -23.532   2.518 -23.658  0.00  0.00    +0.094 C 
BRANCH  11  18
ATOM     18  CA  HIS A   3     -24.470   5.076 -22.482  0.00  0.00    +0.155 C 
BRANCH  18  21
ATOM     19  C   LEU A   2     -26.556   4.649 -21.283  0.00  0.00    +0.241 C 
ATOM     20  O   LEU A   2     -26.535   3.468 -21.593  0.00  0.00    -0.273 OA
ATOM     21  N   HIS A   3     -25.620   5.510 -21.678  0.00  0.00    -0.297 N 
ATOM     22  H   HIS A   3     -25.705   6.512 -21.411  0.00  0.00    +0.150 HD
BRANCH  19  23
ATOM     23  CA  LEU A   2     -27.707   5.202 -20.422  0.00  0.00    +0.149 C 
BRANCH  23  25
ATOM     24  C   LEU A   1     -29.779   5.739 -21.567  0.00  0.00    +0.238 C 
ATOM     25  N   LEU A   2     -28.974   4.846 -21.013  0.00  0.00    -0.297 N 
ATOM     26  H   LEU A   2     -29.267   3.848 -21.003  0.00  0.00    +0.150 HD
ATOM     27  O   LEU A   1     -29.500   6.938 -21.674  0.00  0.00    -0.274 OA
BRANCH  24  28
ATOM     28  CA  LEU A   1     -31.070   5.183 -22.109  0.00  0.00    +0.145 C 
BRANCH  28  29
ATOM     29  N   LEU A   1     -32.220   5.681 -21.356  0.00  0.00    -0.238 NA
ATOM     30  H   LEU A   1     -32.648   6.587 -21.634  0.00  0.00    +0.142 HD
ENDBRANCH  28  29
BRANCH  28  31
ATOM     31  CB  LEU A   1     -31.185   5.533 -23.595  0.00  0.00    +0.026 C 
BRANCH  31  32
ATOM     32  CG  LEU A   1     -31.833   4.470 -24.476  0.00  0.00    +0.002 C 
ATOM     33  CD2 LEU A   1     -33.143   3.989 -23.859  0.00  0.00    +0.000 C 
ATOM     34  CD1 LEU A   1     -32.058   5.021 -25.892  0.00  0.00    +0.000 C 
ENDBRANCH  31  32
ENDBRANCH  28  31
ENDBRANCH  24  28
ENDBRANCH  23  25
BRANCH  23  35
ATOM     35  CB  LEU A   2     -27.643   4.661 -18.990  0.00  0.00    +0.029 C 
BRANCH  35  36
ATOM     36  CG  LEU A   2     -28.883   5.022 -18.160  0.00  0.00    +0.002 C 
ATOM     37  CD2 LEU A   2     -28.919   4.253 -16.863  0.00  0.00    +0.000 C 
ATOM     38  CD1 LEU A   2     -28.930   6.515 -17.901  0.00  0.00    +0.000 C 
ENDBRANCH  35  36
ENDBRANCH  23  35
ENDBRANCH  19  23
ENDBRANCH  18  21
BRANCH  18  39
ATOM     39  CB  HIS A   3     -23.611   6.284 -22.918  0.00  0.00    +0.076 C 
BRANCH  39  40
ATOM     40  CG  HIS A   3     -22.587   5.959 -23.969  0.00  0.00    +0.082 A 
ATOM     41  ND1 HIS A   3     -21.434   5.249 -23.697  0.00  0.00    -0.227 NA
ATOM     42  CE1 HIS A   3     -20.731   5.108 -24.807  0.00  0.00    +0.199 A 
ATOM     43  NE2 HIS A   3     -21.380   5.717 -25.787  0.00  0.00    -0.221 NA
ATOM     44  CD2 HIS A   3     -22.542   6.253 -25.289  0.00  0.00    +0.115 A 
ENDBRANCH  39  40
ENDBRANCH  18  39
ENDBRANCH  11  18
ENDBRANCH   7  14
ENDBRANCH   6   9
BRANCH   6  45
ATOM     45  CB  SER A   5     -18.401   4.452 -21.524  0.00  0.00    +0.166 C 
BRANCH  45  46
ATOM     46  OG  SER A   5     -18.961   5.519 -22.262  0.00  0.00    -0.380 OA
ATOM     47  H   SER A   5     -19.754   5.195 -22.759  0.00  0.00    +0.211 HD
ENDBRANCH  45  46
ENDBRANCH   6  45
ENDBRANCH   2   6
ENDBRANCH   1   4
BRANCH   1  48
ATOM     48  C   ASP A   6     -21.750   5.846 -17.171  0.00  0.00    +0.241 C 
ATOM     49  N   HIS A   7     -20.702   5.400 -16.483  0.00  0.00    -0.297 N 
ATOM     50  H   HIS A   7     -19.749   5.562 -16.867  0.00  0.00    +0.150 HD
ATOM     51  O   ASP A   6     -22.902   5.799 -16.750  0.00  0.00    -0.273 OA
BRANCH  49  52
ATOM     52  CA  HIS A   7     -20.832   4.693 -15.211  0.00  0.00    +0.155 C 
BRANCH  52  53
ATOM     53  C   HIS A   7     -21.507   5.555 -14.145  0.00  0.00    +0.241 C 
ATOM     54  O   HIS A   7     -22.271   5.046 -13.340  0.00  0.00    -0.273 OA
ATOM     55  N   GLU A   8     -21.229   6.856 -14.139  0.00  0.00    -0.297 N 
ATOM     56  H   GLU A   8     -20.524   7.230 -14.805  0.00  0.00    +0.150 HD
BRANCH  55  57
ATOM     57  CA  GLU A   8     -21.905   7.781 -13.201  0.00  0.00    +0.149 C 
BRANCH  57  58
ATOM     58  C   GLU A   8     -23.432   7.772 -13.340  0.00  0.00    +0.241 C 
ATOM     59  O   GLU A   8     -24.144   7.659 -12.344  0.00  0.00    -0.273 OA
ATOM     60  N   ASN A   9     -23.929   7.926 -14.568  0.00  0.00    -0.297 N 
ATOM     61  H   ASN A   9     -23.284   8.077 -15.370  0.00  0.00    +0.150 HD
BRANCH  60  62
ATOM     62  CA  ASN A   9     -25.369   7.885 -14.796  0.00  0.00    +0.158 C 
BRANCH  62  63
ATOM     63  C   ASN A   9     -25.960   6.527 -14.477  0.00  0.00    +0.241 C 
ATOM     64  O   ASN A   9     -27.003   6.444 -13.846  0.00  0.00    -0.273 OA
ATOM     65  N   ILE A  10     -25.288   5.465 -14.901  0.00  0.00    -0.298 N 
ATOM     66  H   ILE A  10     -24.422   5.593 -15.462  0.00  0.00    +0.150 HD
BRANCH  65  67
ATOM     67  CA  ILE A  10     -25.758   4.108 -14.584  0.00  0.00    +0.137 C 
BRANCH  67  68
ATOM     68  C   ILE A  10     -25.956   3.946 -13.069  0.00  0.00    +0.227 C 
ATOM     69  O   ILE A  10     -26.985   3.434 -12.627  0.00  0.00    -0.286 OA
ENDBRANCH  67  68
BRANCH  67  70
ATOM     70  CB  ILE A  10     -24.810   3.010 -15.134  0.00  0.00    +0.026 C 
ATOM     71  CG2 ILE A  10     -25.241   1.617 -14.629  0.00  0.00    +0.002 C 
BRANCH  70  72
ATOM     72  CG1 ILE A  10     -24.789   3.064 -16.670  0.00  0.00    +0.002 C 
ATOM     73  CD1 ILE A  10     -23.949   2.000 -17.343  0.00  0.00    +0.000 C 
ENDBRANCH  70  72
ENDBRANCH  67  70
ENDBRANCH  65  67
ENDBRANCH  62  63
BRANCH  62  74
ATOM     74  CB  ASN A   9     -25.741   8.302 -16.227  0.00  0.00    +0.114 C 
BRANCH  74  75
ATOM     75  CG  ASN A   9     -26.209   9.742 -16.308  0.00  0.00    +0.222 C 
ATOM     76  OD1 ASN A   9     -27.010  10.196 -15.483  0.00  0.00    -0.275 OA
ATOM     77  ND2 ASN A   9     -25.715  10.468 -17.301  0.00  0.00    -0.329 N 
ATOM     78 HD21 ASN A   9     -25.999  11.463 -17.409  0.00  0.00    +0.145 HD
ATOM     79 HD22 ASN A   9     -25.043  10.043 -17.972  0.00  0.00    +0.145 HD
ENDBRANCH  74  75
ENDBRANCH  62  74
ENDBRANCH  60  62
ENDBRANCH  57  58
BRANCH  57  80
ATOM     80  CB  GLU A   8     -21.407   9.219 -13.381  0.00  0.00    +0.041 C 
BRANCH  80  81
ATOM     81  CG  GLU A   8     -20.068   9.523 -12.714  0.00  0.00    +0.116 C 
BRANCH  81  82
ATOM     82  CD  GLU A   8     -19.308  10.708 -13.359  0.00  0.00    +0.365 C 
ATOM     83  OE2 GLU A   8     -18.164  10.956 -12.907  0.00  0.00    -0.246 OA
ATOM     84  OE1 GLU A   8     -19.836  11.385 -14.292  0.00  0.00    -0.246 OA
ENDBRANCH  81  82
ENDBRANCH  80  81
ENDBRANCH  57  80
ENDBRANCH  55  57
ENDBRANCH  52  53
BRANCH  52  85
ATOM     85  CB  HIS A   7     -19.458   4.203 -14.713  0.00  0.00    +0.076 C 
BRANCH  85  86
ATOM     86  CG  HIS A   7     -18.775   3.243 -15.652  0.00  0.00    +0.082 A 
ATOM     87  CD2 HIS A   7     -17.508   3.222 -16.140  0.00  0.00    +0.115 A 
ATOM     88  NE2 HIS A   7     -17.404   2.119 -16.959  0.00  0.00    -0.221 NA
ATOM     89  CE1 HIS A   7     -18.565   1.482 -16.974  0.00  0.00    +0.199 A 
ATOM     90  ND1 HIS A   7     -19.411   2.137 -16.191  0.00  0.00    -0.227 NA
ENDBRANCH  85  86
ENDBRANCH  52  85
ENDBRANCH  49  52
ENDBRANCH   1  48
BRANCH   1  91
ATOM     91  CB  ASP A   6     -22.608   7.269 -19.092  0.00  0.00    +0.143 C 
BRANCH  91  92
ATOM     92  CG  ASP A   6     -22.827   8.600 -18.377  0.00  0.00    +0.367 C 
ATOM     93  OD2 ASP A   6     -22.372   8.786 -17.221  0.00  0.00    -0.246 OA
ATOM     94  OD1 ASP A   6     -23.479   9.477 -18.985  0.00  0.00    -0.246 OA
ENDBRANCH  91  92
ENDBRANCH   1  91
TORSDOF 38
REMARK  Name = ../refined-set-2016/3q71/3q71_pocket.pdb
REMARK  207 active torsions:
REMARK  status: ('A' for Active; 'I' for Inactive)
REMARK    1  A    between atoms: _1  and  _3
REMARK    2  A    between atoms: _3  and  _4
REMARK    3  A    between atoms: _3  and  _6
REMARK    4  A    between atoms: _9  and  _11
REMARK    5  A    between atoms: _11  and  _12
REMARK    6  A    between atoms: _11  and  _14
REMARK    7  A    between atoms: _14  and  _15
REMARK    8  A    between atoms: _15  and  _16
REMARK    9  A    between atoms: _16  and  _17
REMARK   10  A    between atoms: _17  and  _18
REMARK   11  A    between atoms: _22  and  _24
REMARK   12  A    between atoms: _24  and  _25
REMARK   13  A    between atoms: _24  and  _27
REMARK   14  A    between atoms: _27  and  _28
REMARK   15  A    between atoms: _28  and  _29
REMARK   16  A    between atoms: _32  and  _34
REMARK   17  A    between atoms: _34  and  _35
REMARK   18  A    between atoms: _37  and  _39
REMARK   19  A    between atoms: _39  and  _40
REMARK   20  A    between atoms: _39  and  _42
REMARK   21  A    between atoms: _45  and  _47
REMARK   22  A    between atoms: _47  and  _48
REMARK   23  A    between atoms: _47  and  _50
REMARK   24  A    between atoms: _50  and  _51
REMARK   25  A    between atoms: _51  and  _52
REMARK   26  A    between atoms: _57  and  _59
REMARK   27  A    between atoms: _59  and  _60
REMARK   28  A    between atoms: _59  and  _62
REMARK   29  A    between atoms: _62  and  _63
REMARK   30  A    between atoms: _68  and  _70
REMARK   31  A    between atoms: _70  and  _71
REMARK   32  A    between atoms: _74  and  _76
REMARK   33  A    between atoms: _76  and  _77
REMARK   34  A    between atoms: _76  and  _79
REMARK   35  A    between atoms: _79  and  _80
REMARK   36  A    between atoms: _85  and  _87
REMARK   37  A    between atoms: _87  and  _88
REMARK   38  A    between atoms: _87  and  _90
REMARK   39  A    between atoms: _90  and  _91
REMARK   40  A    between atoms: _93  and  _95
REMARK   41  A    between atoms: _95  and  _96
REMARK   42  A    between atoms: _95  and  _98
REMARK   43  A    between atoms: _102  and  _103
REMARK   44  A    between atoms: _108  and  _110
REMARK   45  A    between atoms: _110  and  _111
REMARK   46  A    between atoms: _110  and  _113
REMARK   47  A    between atoms: _113  and  _114
REMARK   48  A    between atoms: _117  and  _119
REMARK   49  A    between atoms: _119  and  _120
REMARK   50  A    between atoms: _119  and  _122
REMARK   51  A    between atoms: _122  and  _123
REMARK   52  A    between atoms: _126  and  _128
REMARK   53  A    between atoms: _128  and  _129
REMARK   54  A    between atoms: _128  and  _131
REMARK   55  A    between atoms: _131  and  _132
REMARK   56  A    between atoms: _135  and  _137
REMARK   57  A    between atoms: _137  and  _138
REMARK   58  A    between atoms: _137  and  _140
REMARK   59  A    between atoms: _143  and  _145
REMARK   60  A    between atoms: _145  and  _146
REMARK   61  A    between atoms: _145  and  _148
REMARK   62  A    between atoms: _148  and  _149
REMARK   63  A    between atoms: _152  and  _154
REMARK   64  A    between atoms: _154  and  _155
REMARK   65  A    between atoms: _154  and  _157
REMARK   66  A    between atoms: _157  and  _158
REMARK   67  A    between atoms: _160  and  _162
REMARK   68  A    between atoms: _162  and  _163
REMARK   69  A    between atoms: _162  and  _165
REMARK   70  A    between atoms: _165  and  _166
REMARK   71  A    between atoms: _166  and  _167
REMARK   72  A    between atoms: _167  and  _168
REMARK   73  A    between atoms: _177  and  _179
REMARK   74  A    between atoms: _179  and  _180
REMARK   75  A    between atoms: _183  and  _184
REMARK   76  A    between atoms: _189  and  _191
REMARK   77  A    between atoms: _191  and  _192
REMARK   78  A    between atoms: _191  and  _194
REMARK   79  A    between atoms: _194  and  _195
REMARK   80  A    between atoms: _198  and  _200
REMARK   81  A    between atoms: _200  and  _201
REMARK   82  A    between atoms: _200  and  _203
REMARK   83  A    between atoms: _203  and  _204
REMARK   84  A    between atoms: _206  and  _208
REMARK   85  A    between atoms: _208  and  _209
REMARK   86  A    between atoms: _208  and  _211
REMARK   87  A    between atoms: _211  and  _212
REMARK   88  A    between atoms: _212  and  _213
REMARK   89  A    between atoms: _213  and  _214
REMARK   90  A    between atoms: _214  and  _215
REMARK   91  A    between atoms: _219  and  _221
REMARK   92  A    between atoms: _221  and  _222
REMARK   93  A    between atoms: _221  and  _224
REMARK   94  A    between atoms: _224  and  _225
REMARK   95  A    between atoms: _227  and  _229
REMARK   96  A    between atoms: _229  and  _230
REMARK   97  A    between atoms: _229  and  _232
REMARK   98  A    between atoms: _232  and  _233
REMARK   99  A    between atoms: _236  and  _238
REMARK  100  A    between atoms: _238  and  _239
REMARK  101  A    between atoms: _238  and  _241
REMARK  102  A    between atoms: _244  and  _246
REMARK  103  A    between atoms: _246  and  _247
REMARK  104  A    between atoms: _246  and  _249
REMARK  105  A    between atoms: _252  and  _254
REMARK  106  A    between atoms: _254  and  _255
REMARK  107  A    between atoms: _259  and  _260
REMARK  108  A    between atoms: _265  and  _267
REMARK  109  A    between atoms: _267  and  _268
REMARK  110  A    between atoms: _267  and  _270
REMARK  111  A    between atoms: _270  and  _271
REMARK  112  A    between atoms: _271  and  _272
REMARK  113  A    between atoms: _275  and  _277
REMARK  114  A    between atoms: _277  and  _278
REMARK  115  A    between atoms: _277  and  _280
REMARK  116  A    between atoms: _280  and  _281
REMARK  117  A    between atoms: _291  and  _293
REMARK  118  A    between atoms: _293  and  _294
REMARK  119  A    between atoms: _293  and  _296
REMARK  120  A    between atoms: _296  and  _297
REMARK  121  A    between atoms: _297  and  _298
REMARK  122  A    between atoms: _300  and  _302
REMARK  123  A    between atoms: _302  and  _303
REMARK  124  A    between atoms: _302  and  _305
REMARK  125  A    between atoms: _305  and  _306
REMARK  126  A    between atoms: _313  and  _314
REMARK  127  A    between atoms: _319  and  _321
REMARK  128  A    between atoms: _321  and  _322
REMARK  129  A    between atoms: _325  and  _327
REMARK  130  A    between atoms: _327  and  _328
REMARK  131  A    between atoms: _327  and  _330
REMARK  132  A    between atoms: _330  and  _331
REMARK  133  A    between atoms: _334  and  _336
REMARK  134  A    between atoms: _336  and  _337
REMARK  135  A    between atoms: _339  and  _341
REMARK  136  A    between atoms: _341  and  _342
REMARK  137  A    between atoms: _341  and  _344
REMARK  138  A    between atoms: _344  and  _345
REMARK  139  A    between atoms: _348  and  _350
REMARK  140  A    between atoms: _350  and  _351
REMARK  141  A    between atoms: _353  and  _355
REMARK  142  A    between atoms: _355  and  _356
REMARK  143  A    between atoms: _355  and  _358
REMARK  144  A    between atoms: _358  and  _359
REMARK  145  A    between atoms: _364  and  _366
REMARK  146  A    between atoms: _366  and  _367
REMARK  147  A    between atoms: _366  and  _369
REMARK  148  A    between atoms: _369  and  _370
REMARK  149  A    between atoms: _373  and  _375
REMARK  150  A    between atoms: _375  and  _376
REMARK  151  A    between atoms: _378  and  _380
REMARK  152  A    between atoms: _380  and  _381
REMARK  153  A    between atoms: _380  and  _383
REMARK  154  A    between atoms: _383  and  _384
REMARK  155  A    between atoms: _390  and  _392
REMARK  156  A    between atoms: _392  and  _393
REMARK  157  A    between atoms: _392  and  _395
REMARK  158  A    between atoms: _395  and  _396
REMARK  159  A    between atoms: _396  and  _397
REMARK  160  A    between atoms: _397  and  _398
REMARK  161  A    between atoms: _398  and  _399
REMARK  162  A    between atoms: _403  and  _405
REMARK  163  A    between atoms: _405  and  _406
REMARK  164  A    between atoms: _405  and  _408
REMARK  165  A    between atoms: _408  and  _409
REMARK  166  A    between atoms: _415  and  _417
REMARK  167  A    between atoms: _417  and  _418
REMARK  168  A    between atoms: _417  and  _420
REMARK  169  A    between atoms: _420  and  _421
REMARK  170  A    between atoms: _424  and  _426
REMARK  171  A    between atoms: _426  and  _427
REMARK  172  A    between atoms: _426  and  _429
REMARK  173  A    between atoms: _429  and  _430
REMARK  174  A    between atoms: _433  and  _435
REMARK  175  A    between atoms: _435  and  _436
REMARK  176  A    between atoms: _435  and  _438
REMARK  177  A    between atoms: _438  and  _439
REMARK  178  A    between atoms: _445  and  _446
REMARK  179  A    between atoms: _451  and  _453
REMARK  180  A    between atoms: _453  and  _454
REMARK  181  A    between atoms: _453  and  _456
REMARK  182  A    between atoms: _456  and  _457
REMARK  183  A    between atoms: _459  and  _461
REMARK  184  A    between atoms: _461  and  _462
REMARK  185  A    between atoms: _461  and  _464
REMARK  186  A    between atoms: _464  and  _465
REMARK  187  A    between atoms: _468  and  _470
REMARK  188  A    between atoms: _470  and  _471
REMARK  189  A    between atoms: _470  and  _473
REMARK  190  A    between atoms: _473  and  _474
REMARK  191  A    between atoms: _479  and  _481
REMARK  192  A    between atoms: _481  and  _482
REMARK  193  A    between atoms: _481  and  _484
REMARK  194  A    between atoms: _484  and  _485
REMARK  195  A    between atoms: _485  and  _486
REMARK  196  A    between atoms: _489  and  _491
REMARK  197  A    between atoms: _491  and  _492
REMARK  198  A    between atoms: _491  and  _494
REMARK  199  A    between atoms: _494  and  _495
REMARK  200  A    between atoms: _500  and  _502
REMARK  201  A    between atoms: _502  and  _503
REMARK  202  A    between atoms: _502  and  _505
REMARK  203  A    between atoms: _505  and  _506
REMARK  204  A    between atoms: _509  and  _511
REMARK  205  A    between atoms: _511  and  _512
REMARK  206  A    between atoms: _511  and  _514
REMARK  207  A    between atoms: _514  and  _515
REMARK                            x       y       z     vdW  Elec       q    Type
REMARK                         _______ _______ _______ _____ _____    ______ ____
ROOT
ATOM      1  CB  PHE A   1     -30.404   5.596 -13.632  0.00  0.00    +0.051 C 
ENDROOT
BRANCH   1   2
ATOM      2  CG  PHE A   1     -30.849   6.844 -14.368  0.00  0.00    -0.020 A 
ATOM      3  CD2 PHE A   1     -29.943   7.835 -14.701  0.00  0.00    -0.004 A 
ATOM      4  CE2 PHE A   1     -30.352   8.970 -15.376  0.00  0.00    -0.000 A 
ATOM      5  CZ  PHE A   1     -31.668   9.121 -15.726  0.00  0.00    -0.000 A 
ATOM      6  CE1 PHE A   1     -32.577   8.142 -15.407  0.00  0.00    -0.000 A 
ATOM      7  CD1 PHE A   1     -32.171   7.013 -14.738  0.00  0.00    -0.004 A 
ENDBRANCH   1   2
BRANCH   1   8
ATOM      8  CA  PHE A   1     -30.273   5.783 -12.117  0.00  0.00    +0.137 C 
BRANCH   8   9
ATOM      9  N   PHE A   1     -28.957   6.270 -11.755  0.00  0.00    -0.239 NA
ATOM     10  H   PHE A   1     -28.177   6.231 -12.442  0.00  0.00    +0.142 HD
ENDBRANCH   8   9
BRANCH   8  11
ATOM     11  C   PHE A   1     -30.586   4.497 -11.352  0.00  0.00    +0.224 C 
ATOM     12  O   PHE A   1     -31.712   4.309 -10.892  0.00  0.00    -0.287 OA
ENDBRANCH   8  11
ENDBRANCH   1   8
TORSDOF 4
REMARK  Name = ../refined-set-2016/3q71/3q71_pocket.pdb
REMARK  207 active torsions:
REMARK  status: ('A' for Active; 'I' for Inactive)
REMARK    1  A    between atoms: _1  and  _3
REMARK    2  A    between atoms: _3  and  _4
REMARK    3  A    between atoms: _3  and  _6
REMARK    4  A    between atoms: _9  and  _11
REMARK    5  A    between atoms: _11  and  _12
REMARK    6  A    between atoms: _11  and  _14
REMARK    7  A    between atoms: _14  and  _15
REMARK    8  A    between atoms: _15  and  _16
REMARK    9  A    between atoms: _16  and  _17
REMARK   10  A    between atoms: _17  and  _18
REMARK   11  A    between atoms: _22  and  _24
REMARK   12  A    between atoms: _24  and  _25
REMARK   13  A    between atoms: _24  and  _27
REMARK   14  A    between atoms: _27  and  _28
REMARK   15  A    between atoms: _28  and  _29
REMARK   16  A    between atoms: _32  and  _34
REMARK   17  A    between atoms: _34  and  _35
REMARK   18  A    between atoms: _37  and  _39
REMARK   19  A    between atoms: _39  and  _40
REMARK   20  A    between atoms: _39  and  _42
REMARK   21  A    between atoms: _45  and  _47
REMARK   22  A    between atoms: _47  and  _48
REMARK   23  A    between atoms: _47  and  _50
REMARK   24  A    between atoms: _50  and  _51
REMARK   25  A    between atoms: _51  and  _52
REMARK   26  A    between atoms: _57  and  _59
REMARK   27  A    between atoms: _59  and  _60
REMARK   28  A    between atoms: _59  and  _62
REMARK   29  A    between atoms: _62  and  _63
REMARK   30  A    between atoms: _68  and  _70
REMARK   31  A    between atoms: _70  and  _71
REMARK   32  A    between atoms: _74  and  _76
REMARK   33  A    between atoms: _76  and  _77
REMARK   34  A    between atoms: _76  and  _79
REMARK   35  A    between atoms: _79  and  _80
REMARK   36  A    between atoms: _85  and  _87
REMARK   37  A    between atoms: _87  and  _88
REMARK   38  A    between atoms: _87  and  _90
REMARK   39  A    between atoms: _90  and  _91
REMARK   40  A    between atoms: _93  and  _95
REMARK   41  A    between atoms: _95  and  _96
REMARK   42  A    between atoms: _95  and  _98
REMARK   43  A    between atoms: _102  and  _103
REMARK   44  A    between atoms: _108  and  _110
REMARK   45  A    between atoms: _110  and  _111
REMARK   46  A    between atoms: _110  and  _113
REMARK   47  A    between atoms: _113  and  _114
REMARK   48  A    between atoms: _117  and  _119
REMARK   49  A    between atoms: _119  and  _120
REMARK   50  A    between atoms: _119  and  _122
REMARK   51  A    between atoms: _122  and  _123
REMARK   52  A    between atoms: _126  and  _128
REMARK   53  A    between atoms: _128  and  _129
REMARK   54  A    between atoms: _128  and  _131
REMARK   55  A    between atoms: _131  and  _132
REMARK   56  A    between atoms: _135  and  _137
REMARK   57  A    between atoms: _137  and  _138
REMARK   58  A    between atoms: _137  and  _140
REMARK   59  A    between atoms: _143  and  _145
REMARK   60  A    between atoms: _145  and  _146
REMARK   61  A    between atoms: _145  and  _148
REMARK   62  A    between atoms: _148  and  _149
REMARK   63  A    between atoms: _152  and  _154
REMARK   64  A    between atoms: _154  and  _155
REMARK   65  A    between atoms: _154  and  _157
REMARK   66  A    between atoms: _157  and  _158
REMARK   67  A    between atoms: _160  and  _162
REMARK   68  A    between atoms: _162  and  _163
REMARK   69  A    between atoms: _162  and  _165
REMARK   70  A    between atoms: _165  and  _166
REMARK   71  A    between atoms: _166  and  _167
REMARK   72  A    between atoms: _167  and  _168
REMARK   73  A    between atoms: _177  and  _179
REMARK   74  A    between atoms: _179  and  _180
REMARK   75  A    between atoms: _183  and  _184
REMARK   76  A    between atoms: _189  and  _191
REMARK   77  A    between atoms: _191  and  _192
REMARK   78  A    between atoms: _191  and  _194
REMARK   79  A    between atoms: _194  and  _195
REMARK   80  A    between atoms: _198  and  _200
REMARK   81  A    between atoms: _200  and  _201
REMARK   82  A    between atoms: _200  and  _203
REMARK   83  A    between atoms: _203  and  _204
REMARK   84  A    between atoms: _206  and  _208
REMARK   85  A    between atoms: _208  and  _209
REMARK   86  A    between atoms: _208  and  _211
REMARK   87  A    between atoms: _211  and  _212
REMARK   88  A    between atoms: _212  and  _213
REMARK   89  A    between atoms: _213  and  _214
REMARK   90  A    between atoms: _214  and  _215
REMARK   91  A    between atoms: _219  and  _221
REMARK   92  A    between atoms: _221  and  _222
REMARK   93  A    between atoms: _221  and  _224
REMARK   94  A    between atoms: _224  and  _225
REMARK   95  A    between atoms: _227  and  _229
REMARK   96  A    between atoms: _229  and  _230
REMARK   97  A    between atoms: _229  and  _232
REMARK   98  A    between atoms: _232  and  _233
REMARK   99  A    between atoms: _236  and  _238
REMARK  100  A    between atoms: _238  and  _239
REMARK  101  A    between atoms: _238  and  _241
REMARK  102  A    between atoms: _244  and  _246
REMARK  103  A    between atoms: _246  and  _247
REMARK  104  A    between atoms: _246  and  _249
REMARK  105  A    between atoms: _252  and  _254
REMARK  106  A    between atoms: _254  and  _255
REMARK  107  A    between atoms: _259  and  _260
REMARK  108  A    between atoms: _265  and  _267
REMARK  109  A    between atoms: _267  and  _268
REMARK  110  A    between atoms: _267  and  _270
REMARK  111  A    between atoms: _270  and  _271
REMARK  112  A    between atoms: _271  and  _272
REMARK  113  A    between atoms: _275  and  _277
REMARK  114  A    between atoms: _277  and  _278
REMARK  115  A    between atoms: _277  and  _280
REMARK  116  A    between atoms: _280  and  _281
REMARK  117  A    between atoms: _291  and  _293
REMARK  118  A    between atoms: _293  and  _294
REMARK  119  A    between atoms: _293  and  _296
REMARK  120  A    between atoms: _296  and  _297
REMARK  121  A    between atoms: _297  and  _298
REMARK  122  A    between atoms: _300  and  _302
REMARK  123  A    between atoms: _302  and  _303
REMARK  124  A    between atoms: _302  and  _305
REMARK  125  A    between atoms: _305  and  _306
REMARK  126  A    between atoms: _313  and  _314
REMARK  127  A    between atoms: _319  and  _321
REMARK  128  A    between atoms: _321  and  _322
REMARK  129  A    between atoms: _325  and  _327
REMARK  130  A    between atoms: _327  and  _328
REMARK  131  A    between atoms: _327  and  _330
REMARK  132  A    between atoms: _330  and  _331
REMARK  133  A    between atoms: _334  and  _336
REMARK  134  A    between atoms: _336  and  _337
REMARK  135  A    between atoms: _339  and  _341
REMARK  136  A    between atoms: _341  and  _342
REMARK  137  A    between atoms: _341  and  _344
REMARK  138  A    between atoms: _344  and  _345
REMARK  139  A    between atoms: _348  and  _350
REMARK  140  A    between atoms: _350  and  _351
REMARK  141  A    between atoms: _353  and  _355
REMARK  142  A    between atoms: _355  and  _356
REMARK  143  A    between atoms: _355  and  _358
REMARK  144  A    between atoms: _358  and  _359
REMARK  145  A    between atoms: _364  and  _366
REMARK  146  A    between atoms: _366  and  _367
REMARK  147  A    between atoms: _366  and  _369
REMARK  148  A    between atoms: _369  and  _370
REMARK  149  A    between atoms: _373  and  _375
REMARK  150  A    between atoms: _375  and  _376
REMARK  151  A    between atoms: _378  and  _380
REMARK  152  A    between atoms: _380  and  _381
REMARK  153  A    between atoms: _380  and  _383
REMARK  154  A    between atoms: _383  and  _384
REMARK  155  A    between atoms: _390  and  _392
REMARK  156  A    between atoms: _392  and  _393
REMARK  157  A    between atoms: _392  and  _395
REMARK  158  A    between atoms: _395  and  _396
REMARK  159  A    between atoms: _396  and  _397
REMARK  160  A    between atoms: _397  and  _398
REMARK  161  A    between atoms: _398  and  _399
REMARK  162  A    between atoms: _403  and  _405
REMARK  163  A    between atoms: _405  and  _406
REMARK  164  A    between atoms: _405  and  _408
REMARK  165  A    between atoms: _408  and  _409
REMARK  166  A    between atoms: _415  and  _417
REMARK  167  A    between atoms: _417  and  _418
REMARK  168  A    between atoms: _417  and  _420
REMARK  169  A    between atoms: _420  and  _421
REMARK  170  A    between atoms: _424  and  _426
REMARK  171  A    between atoms: _426  and  _427
REMARK  172  A    between atoms: _426  and  _429
REMARK  173  A    between atoms: _429  and  _430
REMARK  174  A    between atoms: _433  and  _435
REMARK  175  A    between atoms: _435  and  _436
REMARK  176  A    between atoms: _435  and  _438
REMARK  177  A    between atoms: _438  and  _439
REMARK  178  A    between atoms: _445  and  _446
REMARK  179  A    between atoms: _451  and  _453
REMARK  180  A    between atoms: _453  and  _454
REMARK  181  A    between atoms: _453  and  _456
REMARK  182  A    between atoms: _456  and  _457
REMARK  183  A    between atoms: _459  and  _461
REMARK  184  A    between atoms: _461  and  _462
REMARK  185  A    between atoms: _461  and  _464
REMARK  186  A    between atoms: _464  and  _465
REMARK  187  A    between atoms: _468  and  _470
REMARK  188  A    between atoms: _470  and  _471
REMARK  189  A    between atoms: _470  and  _473
REMARK  190  A    between atoms: _473  and  _474
REMARK  191  A    between atoms: _479  and  _481
REMARK  192  A    between atoms: _481  and  _482
REMARK  193  A    between atoms: _481  and  _484
REMARK  194  A    between atoms: _484  and  _485
REMARK  195  A    between atoms: _485  and  _486
REMARK  196  A    between atoms: _489  and  _491
REMARK  197  A    between atoms: _491  and  _492
REMARK  198  A    between atoms: _491  and  _494
REMARK  199  A    between atoms: _494  and  _495
REMARK  200  A    between atoms: _500  and  _502
REMARK  201  A    between atoms: _502  and  _503
REMARK  202  A    between atoms: _502  and  _505
REMARK  203  A    between atoms: _505  and  _506
REMARK  204  A    between atoms: _509  and  _511
REMARK  205  A    between atoms: _511  and  _512
REMARK  206  A    between atoms: _511  and  _514
REMARK  207  A    between atoms: _514  and  _515
REMARK                            x       y       z     vdW  Elec       q    Type
REMARK                         _______ _______ _______ _____ _____    ______ ____
ROOT
ATOM      1  O   HOH     1     -25.582  -0.091 -27.618  0.00  0.00    +0.000 OA
ENDROOT
TORSDOF 0
REMARK  Name = ../refined-set-2016/3q71/3q71_pocket.pdb
REMARK  207 active torsions:
REMARK  status: ('A' for Active; 'I' for Inactive)
REMARK    1  A    between atoms: _1  and  _3
REMARK    2  A    between atoms: _3  and  _4
REMARK    3  A    between atoms: _3  and  _6
REMARK    4  A    between atoms: _9  and  _11
REMARK    5  A    between atoms: _11  and  _12
REMARK    6  A    between atoms: _11  and  _14
REMARK    7  A    between atoms: _14  and  _15
REMARK    8  A    between atoms: _15  and  _16
REMARK    9  A    between atoms: _16  and  _17
REMARK   10  A    between atoms: _17  and  _18
REMARK   11  A    between atoms: _22  and  _24
REMARK   12  A    between atoms: _24  and  _25
REMARK   13  A    between atoms: _24  and  _27
REMARK   14  A    between atoms: _27  and  _28
REMARK   15  A    between atoms: _28  and  _29
REMARK   16  A    between atoms: _32  and  _34
REMARK   17  A    between atoms: _34  and  _35
REMARK   18  A    between atoms: _37  and  _39
REMARK   19  A    between atoms: _39  and  _40
REMARK   20  A    between atoms: _39  and  _42
REMARK   21  A    between atoms: _45  and  _47
REMARK   22  A    between atoms: _47  and  _48
REMARK   23  A    between atoms: _47  and  _50
REMARK   24  A    between atoms: _50  and  _51
REMARK   25  A    between atoms: _51  and  _52
REMARK   26  A    between atoms: _57  and  _59
REMARK   27  A    between atoms: _59  and  _60
REMARK   28  A    between atoms: _59  and  _62
REMARK   29  A    between atoms: _62  and  _63
REMARK   30  A    between atoms: _68  and  _70
REMARK   31  A    between atoms: _70  and  _71
REMARK   32  A    between atoms: _74  and  _76
REMARK   33  A    between atoms: _76  and  _77
REMARK   34  A    between atoms: _76  and  _79
REMARK   35  A    between atoms: _79  and  _80
REMARK   36  A    between atoms: _85  and  _87
REMARK   37  A    between atoms: _87  and  _88
REMARK   38  A    between atoms: _87  and  _90
REMARK   39  A    between atoms: _90  and  _91
REMARK   40  A    between atoms: _93  and  _95
REMARK   41  A    between atoms: _95  and  _96
REMARK   42  A    between atoms: _95  and  _98
REMARK   43  A    between atoms: _102  and  _103
REMARK   44  A    between atoms: _108  and  _110
REMARK   45  A    between atoms: _110  and  _111
REMARK   46  A    between atoms: _110  and  _113
REMARK   47  A    between atoms: _113  and  _114
REMARK   48  A    between atoms: _117  and  _119
REMARK   49  A    between atoms: _119  and  _120
REMARK   50  A    between atoms: _119  and  _122
REMARK   51  A    between atoms: _122  and  _123
REMARK   52  A    between atoms: _126  and  _128
REMARK   53  A    between atoms: _128  and  _129
REMARK   54  A    between atoms: _128  and  _131
REMARK   55  A    between atoms: _131  and  _132
REMARK   56  A    between atoms: _135  and  _137
REMARK   57  A    between atoms: _137  and  _138
REMARK   58  A    between atoms: _137  and  _140
REMARK   59  A    between atoms: _143  and  _145
REMARK   60  A    between atoms: _145  and  _146
REMARK   61  A    between atoms: _145  and  _148
REMARK   62  A    between atoms: _148  and  _149
REMARK   63  A    between atoms: _152  and  _154
REMARK   64  A    between atoms: _154  and  _155
REMARK   65  A    between atoms: _154  and  _157
REMARK   66  A    between atoms: _157  and  _158
REMARK   67  A    between atoms: _160  and  _162
REMARK   68  A    between atoms: _162  and  _163
REMARK   69  A    between atoms: _162  and  _165
REMARK   70  A    between atoms: _165  and  _166
REMARK   71  A    between atoms: _166  and  _167
REMARK   72  A    between atoms: _167  and  _168
REMARK   73  A    between atoms: _177  and  _179
REMARK   74  A    between atoms: _179  and  _180
REMARK   75  A    between atoms: _183  and  _184
REMARK   76  A    between atoms: _189  and  _191
REMARK   77  A    between atoms: _191  and  _192
REMARK   78  A    between atoms: _191  and  _194
REMARK   79  A    between atoms: _194  and  _195
REMARK   80  A    between atoms: _198  and  _200
REMARK   81  A    between atoms: _200  and  _201
REMARK   82  A    between atoms: _200  and  _203
REMARK   83  A    between atoms: _203  and  _204
REMARK   84  A    between atoms: _206  and  _208
REMARK   85  A    between atoms: _208  and  _209
REMARK   86  A    between atoms: _208  and  _211
REMARK   87  A    between atoms: _211  and  _212
REMARK   88  A    between atoms: _212  and  _213
REMARK   89  A    between atoms: _213  and  _214
REMARK   90  A    between atoms: _214  and  _215
REMARK   91  A    between atoms: _219  and  _221
REMARK   92  A    between atoms: _221  and  _222
REMARK   93  A    between atoms: _221  and  _224
REMARK   94  A    between atoms: _224  and  _225
REMARK   95  A    between atoms: _227  and  _229
REMARK   96  A    between atoms: _229  and  _230
REMARK   97  A    between atoms: _229  and  _232
REMARK   98  A    between atoms: _232  and  _233
REMARK   99  A    between atoms: _236  and  _238
REMARK  100  A    between atoms: _238  and  _239
REMARK  101  A    between atoms: _238  and  _241
REMARK  102  A    between atoms: _244  and  _246
REMARK  103  A    between atoms: _246  and  _247
REMARK  104  A    between atoms: _246  and  _249
REMARK  105  A    between atoms: _252  and  _254
REMARK  106  A    between atoms: _254  and  _255
REMARK  107  A    between atoms: _259  and  _260
REMARK  108  A    between atoms: _265  and  _267
REMARK  109  A    between atoms: _267  and  _268
REMARK  110  A    between atoms: _267  and  _270
REMARK  111  A    between atoms: _270  and  _271
REMARK  112  A    between atoms: _271  and  _272
REMARK  113  A    between atoms: _275  and  _277
REMARK  114  A    between atoms: _277  and  _278
REMARK  115  A    between atoms: _277  and  _280
REMARK  116  A    between atoms: _280  and  _281
REMARK  117  A    between atoms: _291  and  _293
REMARK  118  A    between atoms: _293  and  _294
REMARK  119  A    between atoms: _293  and  _296
REMARK  120  A    between atoms: _296  and  _297
REMARK  121  A    between atoms: _297  and  _298
REMARK  122  A    between atoms: _300  and  _302
REMARK  123  A    between atoms: _302  and  _303
REMARK  124  A    between atoms: _302  and  _305
REMARK  125  A    between atoms: _305  and  _306
REMARK  126  A    between atoms: _313  and  _314
REMARK  127  A    between atoms: _319  and  _321
REMARK  128  A    between atoms: _321  and  _322
REMARK  129  A    between atoms: _325  and  _327
REMARK  130  A    between atoms: _327  and  _328
REMARK  131  A    between atoms: _327  and  _330
REMARK  132  A    between atoms: _330  and  _331
REMARK  133  A    between atoms: _334  and  _336
REMARK  134  A    between atoms: _336  and  _337
REMARK  135  A    between atoms: _339  and  _341
REMARK  136  A    between atoms: _341  and  _342
REMARK  137  A    between atoms: _341  and  _344
REMARK  138  A    between atoms: _344  and  _345
REMARK  139  A    between atoms: _348  and  _350
REMARK  140  A    between atoms: _350  and  _351
REMARK  141  A    between atoms: _353  and  _355
REMARK  142  A    between atoms: _355  and  _356
REMARK  143  A    between atoms: _355  and  _358
REMARK  144  A    between atoms: _358  and  _359
REMARK  145  A    between atoms: _364  and  _366
REMARK  146  A    between atoms: _366  and  _367
REMARK  147  A    between atoms: _366  and  _369
REMARK  148  A    between atoms: _369  and  _370
REMARK  149  A    between atoms: _373  and  _375
REMARK  150  A    between atoms: _375  and  _376
REMARK  151  A    between atoms: _378  and  _380
REMARK  152  A    between atoms: _380  and  _381
REMARK  153  A    between atoms: _380  and  _383
REMARK  154  A    between atoms: _383  and  _384
REMARK  155  A    between atoms: _390  and  _392
REMARK  156  A    between atoms: _392  and  _393
REMARK  157  A    between atoms: _392  and  _395
REMARK  158  A    between atoms: _395  and  _396
REMARK  159  A    between atoms: _396  and  _397
REMARK  160  A    between atoms: _397  and  _398
REMARK  161  A    between atoms: _398  and  _399
REMARK  162  A    between atoms: _403  and  _405
REMARK  163  A    between atoms: _405  and  _406
REMARK  164  A    between atoms: _405  and  _408
REMARK  165  A    between atoms: _408  and  _409
REMARK  166  A    between atoms: _415  and  _417
REMARK  167  A    between atoms: _417  and  _418
REMARK  168  A    between atoms: _417  and  _420
REMARK  169  A    between atoms: _420  and  _421
REMARK  170  A    between atoms: _424  and  _426
REMARK  171  A    between atoms: _426  and  _427
REMARK  172  A    between atoms: _426  and  _429
REMARK  173  A    between atoms: _429  and  _430
REMARK  174  A    between atoms: _433  and  _435
REMARK  175  A    between atoms: _435  and  _436
REMARK  176  A    between atoms: _435  and  _438
REMARK  177  A    between atoms: _438  and  _439
REMARK  178  A    between atoms: _445  and  _446
REMARK  179  A    between atoms: _451  and  _453
REMARK  180  A    between atoms: _453  and  _454
REMARK  181  A    between atoms: _453  and  _456
REMARK  182  A    between atoms: _456  and  _457
REMARK  183  A    between atoms: _459  and  _461
REMARK  184  A    between atoms: _461  and  _462
REMARK  185  A    between atoms: _461  and  _464
REMARK  186  A    between atoms: _464  and  _465
REMARK  187  A    between atoms: _468  and  _470
REMARK  188  A    between atoms: _470  and  _471
REMARK  189  A    between atoms: _470  and  _473
REMARK  190  A    between atoms: _473  and  _474
REMARK  191  A    between atoms: _479  and  _481
REMARK  192  A    between atoms: _481  and  _482
REMARK  193  A    between atoms: _481  and  _484
REMARK  194  A    between atoms: _484  and  _485
REMARK  195  A    between atoms: _485  and  _486
REMARK  196  A    between atoms: _489  and  _491
REMARK  197  A    between atoms: _491  and  _492
REMARK  198  A    between atoms: _491  and  _494
REMARK  199  A    between atoms: _494  and  _495
REMARK  200  A    between atoms: _500  and  _502
REMARK  201  A    between atoms: _502  and  _503
REMARK  202  A    between atoms: _502  and  _505
REMARK  203  A    between atoms: _505  and  _506
REMARK  204  A    between atoms: _509  and  _511
REMARK  205  A    between atoms: _511  and  _512
REMARK  206  A    between atoms: _511  and  _514
REMARK  207  A    between atoms: _514  and  _515
REMARK                            x       y       z     vdW  Elec       q    Type
REMARK                         _______ _______ _______ _____ _____    ______ ____
ROOT
ATOM      1  O   HOH     1     -24.428  25.645 -27.833  0.00  0.00    +0.000 OA
ENDROOT
TORSDOF 0
REMARK  Name = ../refined-set-2016/3q71/3q71_pocket.pdb
REMARK  207 active torsions:
REMARK  status: ('A' for Active; 'I' for Inactive)
REMARK    1  A    between atoms: _1  and  _3
REMARK    2  A    between atoms: _3  and  _4
REMARK    3  A    between atoms: _3  and  _6
REMARK    4  A    between atoms: _9  and  _11
REMARK    5  A    between atoms: _11  and  _12
REMARK    6  A    between atoms: _11  and  _14
REMARK    7  A    between atoms: _14  and  _15
REMARK    8  A    between atoms: _15  and  _16
REMARK    9  A    between atoms: _16  and  _17
REMARK   10  A    between atoms: _17  and  _18
REMARK   11  A    between atoms: _22  and  _24
REMARK   12  A    between atoms: _24  and  _25
REMARK   13  A    between atoms: _24  and  _27
REMARK   14  A    between atoms: _27  and  _28
REMARK   15  A    between atoms: _28  and  _29
REMARK   16  A    between atoms: _32  and  _34
REMARK   17  A    between atoms: _34  and  _35
REMARK   18  A    between atoms: _37  and  _39
REMARK   19  A    between atoms: _39  and  _40
REMARK   20  A    between atoms: _39  and  _42
REMARK   21  A    between atoms: _45  and  _47
REMARK   22  A    between atoms: _47  and  _48
REMARK   23  A    between atoms: _47  and  _50
REMARK   24  A    between atoms: _50  and  _51
REMARK   25  A    between atoms: _51  and  _52
REMARK   26  A    between atoms: _57  and  _59
REMARK   27  A    between atoms: _59  and  _60
REMARK   28  A    between atoms: _59  and  _62
REMARK   29  A    between atoms: _62  and  _63
REMARK   30  A    between atoms: _68  and  _70
REMARK   31  A    between atoms: _70  and  _71
REMARK   32  A    between atoms: _74  and  _76
REMARK   33  A    between atoms: _76  and  _77
REMARK   34  A    between atoms: _76  and  _79
REMARK   35  A    between atoms: _79  and  _80
REMARK   36  A    between atoms: _85  and  _87
REMARK   37  A    between atoms: _87  and  _88
REMARK   38  A    between atoms: _87  and  _90
REMARK   39  A    between atoms: _90  and  _91
REMARK   40  A    between atoms: _93  and  _95
REMARK   41  A    between atoms: _95  and  _96
REMARK   42  A    between atoms: _95  and  _98
REMARK   43  A    between atoms: _102  and  _103
REMARK   44  A    between atoms: _108  and  _110
REMARK   45  A    between atoms: _110  and  _111
REMARK   46  A    between atoms: _110  and  _113
REMARK   47  A    between atoms: _113  and  _114
REMARK   48  A    between atoms: _117  and  _119
REMARK   49  A    between atoms: _119  and  _120
REMARK   50  A    between atoms: _119  and  _122
REMARK   51  A    between atoms: _122  and  _123
REMARK   52  A    between atoms: _126  and  _128
REMARK   53  A    between atoms: _128  and  _129
REMARK   54  A    between atoms: _128  and  _131
REMARK   55  A    between atoms: _131  and  _132
REMARK   56  A    between atoms: _135  and  _137
REMARK   57  A    between atoms: _137  and  _138
REMARK   58  A    between atoms: _137  and  _140
REMARK   59  A    between atoms: _143  and  _145
REMARK   60  A    between atoms: _145  and  _146
REMARK   61  A    between atoms: _145  and  _148
REMARK   62  A    between atoms: _148  and  _149
REMARK   63  A    between atoms: _152  and  _154
REMARK   64  A    between atoms: _154  and  _155
REMARK   65  A    between atoms: _154  and  _157
REMARK   66  A    between atoms: _157  and  _158
REMARK   67  A    between atoms: _160  and  _162
REMARK   68  A    between atoms: _162  and  _163
REMARK   69  A    between atoms: _162  and  _165
REMARK   70  A    between atoms: _165  and  _166
REMARK   71  A    between atoms: _166  and  _167
REMARK   72  A    between atoms: _167  and  _168
REMARK   73  A    between atoms: _177  and  _179
REMARK   74  A    between atoms: _179  and  _180
REMARK   75  A    between atoms: _183  and  _184
REMARK   76  A    between atoms: _189  and  _191
REMARK   77  A    between atoms: _191  and  _192
REMARK   78  A    between atoms: _191  and  _194
REMARK   79  A    between atoms: _194  and  _195
REMARK   80  A    between atoms: _198  and  _200
REMARK   81  A    between atoms: _200  and  _201
REMARK   82  A    between atoms: _200  and  _203
REMARK   83  A    between atoms: _203  and  _204
REMARK   84  A    between atoms: _206  and  _208
REMARK   85  A    between atoms: _208  and  _209
REMARK   86  A    between atoms: _208  and  _211
REMARK   87  A    between atoms: _211  and  _212
REMARK   88  A    between atoms: _212  and  _213
REMARK   89  A    between atoms: _213  and  _214
REMARK   90  A    between atoms: _214  and  _215
REMARK   91  A    between atoms: _219  and  _221
REMARK   92  A    between atoms: _221  and  _222
REMARK   93  A    between atoms: _221  and  _224
REMARK   94  A    between atoms: _224  and  _225
REMARK   95  A    between atoms: _227  and  _229
REMARK   96  A    between atoms: _229  and  _230
REMARK   97  A    between atoms: _229  and  _232
REMARK   98  A    between atoms: _232  and  _233
REMARK   99  A    between atoms: _236  and  _238
REMARK  100  A    between atoms: _238  and  _239
REMARK  101  A    between atoms: _238  and  _241
REMARK  102  A    between atoms: _244  and  _246
REMARK  103  A    between atoms: _246  and  _247
REMARK  104  A    between atoms: _246  and  _249
REMARK  105  A    between atoms: _252  and  _254
REMARK  106  A    between atoms: _254  and  _255
REMARK  107  A    between atoms: _259  and  _260
REMARK  108  A    between atoms: _265  and  _267
REMARK  109  A    between atoms: _267  and  _268
REMARK  110  A    between atoms: _267  and  _270
REMARK  111  A    between atoms: _270  and  _271
REMARK  112  A    between atoms: _271  and  _272
REMARK  113  A    between atoms: _275  and  _277
REMARK  114  A    between atoms: _277  and  _278
REMARK  115  A    between atoms: _277  and  _280
REMARK  116  A    between atoms: _280  and  _281
REMARK  117  A    between atoms: _291  and  _293
REMARK  118  A    between atoms: _293  and  _294
REMARK  119  A    between atoms: _293  and  _296
REMARK  120  A    between atoms: _296  and  _297
REMARK  121  A    between atoms: _297  and  _298
REMARK  122  A    between atoms: _300  and  _302
REMARK  123  A    between atoms: _302  and  _303
REMARK  124  A    between atoms: _302  and  _305
REMARK  125  A    between atoms: _305  and  _306
REMARK  126  A    between atoms: _313  and  _314
REMARK  127  A    between atoms: _319  and  _321
REMARK  128  A    between atoms: _321  and  _322
REMARK  129  A    between atoms: _325  and  _327
REMARK  130  A    between atoms: _327  and  _328
REMARK  131  A    between atoms: _327  and  _330
REMARK  132  A    between atoms: _330  and  _331
REMARK  133  A    between atoms: _334  and  _336
REMARK  134  A    between atoms: _336  and  _337
REMARK  135  A    between atoms: _339  and  _341
REMARK  136  A    between atoms: _341  and  _342
REMARK  137  A    between atoms: _341  and  _344
REMARK  138  A    between atoms: _344  and  _345
REMARK  139  A    between atoms: _348  and  _350
REMARK  140  A    between atoms: _350  and  _351
REMARK  141  A    between atoms: _353  and  _355
REMARK  142  A    between atoms: _355  and  _356
REMARK  143  A    between atoms: _355  and  _358
REMARK  144  A    between atoms: _358  and  _359
REMARK  145  A    between atoms: _364  and  _366
REMARK  146  A    between atoms: _366  and  _367
REMARK  147  A    between atoms: _366  and  _369
REMARK  148  A    between atoms: _369  and  _370
REMARK  149  A    between atoms: _373  and  _375
REMARK  150  A    between atoms: _375  and  _376
REMARK  151  A    between atoms: _378  and  _380
REMARK  152  A    between atoms: _380  and  _381
REMARK  153  A    between atoms: _380  and  _383
REMARK  154  A    between atoms: _383  and  _384
REMARK  155  A    between atoms: _390  and  _392
REMARK  156  A    between atoms: _392  and  _393
REMARK  157  A    between atoms: _392  and  _395
REMARK  158  A    between atoms: _395  and  _396
REMARK  159  A    between atoms: _396  and  _397
REMARK  160  A    between atoms: _397  and  _398
REMARK  161  A    between atoms: _398  and  _399
REMARK  162  A    between atoms: _403  and  _405
REMARK  163  A    between atoms: _405  and  _406
REMARK  164  A    between atoms: _405  and  _408
REMARK  165  A    between atoms: _408  and  _409
REMARK  166  A    between atoms: _415  and  _417
REMARK  167  A    between atoms: _417  and  _418
REMARK  168  A    between atoms: _417  and  _420
REMARK  169  A    between atoms: _420  and  _421
REMARK  170  A    between atoms: _424  and  _426
REMARK  171  A    between atoms: _426  and  _427
REMARK  172  A    between atoms: _426  and  _429
REMARK  173  A    between atoms: _429  and  _430
REMARK  174  A    between atoms: _433  and  _435
REMARK  175  A    between atoms: _435  and  _436
REMARK  176  A    between atoms: _435  and  _438
REMARK  177  A    between atoms: _438  and  _439
REMARK  178  A    between atoms: _445  and  _446
REMARK  179  A    between atoms: _451  and  _453
REMARK  180  A    between atoms: _453  and  _454
REMARK  181  A    between atoms: _453  and  _456
REMARK  182  A    between atoms: _456  and  _457
REMARK  183  A    between atoms: _459  and  _461
REMARK  184  A    between atoms: _461  and  _462
REMARK  185  A    between atoms: _461  and  _464
REMARK  186  A    between atoms: _464  and  _465
REMARK  187  A    between atoms: _468  and  _470
REMARK  188  A    between atoms: _470  and  _471
REMARK  189  A    between atoms: _470  and  _473
REMARK  190  A    between atoms: _473  and  _474
REMARK  191  A    between atoms: _479  and  _481
REMARK  192  A    between atoms: _481  and  _482
REMARK  193  A    between atoms: _481  and  _484
REMARK  194  A    between atoms: _484  and  _485
REMARK  195  A    between atoms: _485  and  _486
REMARK  196  A    between atoms: _489  and  _491
REMARK  197  A    between atoms: _491  and  _492
REMARK  198  A    between atoms: _491  and  _494
REMARK  199  A    between atoms: _494  and  _495
REMARK  200  A    between atoms: _500  and  _502
REMARK  201  A    between atoms: _502  and  _503
REMARK  202  A    between atoms: _502  and  _505
REMARK  203  A    between atoms: _505  and  _506
REMARK  204  A    between atoms: _509  and  _511
REMARK  205  A    between atoms: _511  and  _512
REMARK  206  A    between atoms: _511  and  _514
REMARK  207  A    between atoms: _514  and  _515
REMARK                            x       y       z     vdW  Elec       q    Type
REMARK                         _______ _______ _______ _____ _____    ______ ____
ROOT
ATOM      1  O   HOH     1     -27.548  27.061 -27.198  0.00  0.00    +0.000 OA
ENDROOT
TORSDOF 0
REMARK  Name = ../refined-set-2016/3q71/3q71_pocket.pdb
REMARK  207 active torsions:
REMARK  status: ('A' for Active; 'I' for Inactive)
REMARK    1  A    between atoms: _1  and  _3
REMARK    2  A    between atoms: _3  and  _4
REMARK    3  A    between atoms: _3  and  _6
REMARK    4  A    between atoms: _9  and  _11
REMARK    5  A    between atoms: _11  and  _12
REMARK    6  A    between atoms: _11  and  _14
REMARK    7  A    between atoms: _14  and  _15
REMARK    8  A    between atoms: _15  and  _16
REMARK    9  A    between atoms: _16  and  _17
REMARK   10  A    between atoms: _17  and  _18
REMARK   11  A    between atoms: _22  and  _24
REMARK   12  A    between atoms: _24  and  _25
REMARK   13  A    between atoms: _24  and  _27
REMARK   14  A    between atoms: _27  and  _28
REMARK   15  A    between atoms: _28  and  _29
REMARK   16  A    between atoms: _32  and  _34
REMARK   17  A    between atoms: _34  and  _35
REMARK   18  A    between atoms: _37  and  _39
REMARK   19  A    between atoms: _39  and  _40
REMARK   20  A    between atoms: _39  and  _42
REMARK   21  A    between atoms: _45  and  _47
REMARK   22  A    between atoms: _47  and  _48
REMARK   23  A    between atoms: _47  and  _50
REMARK   24  A    between atoms: _50  and  _51
REMARK   25  A    between atoms: _51  and  _52
REMARK   26  A    between atoms: _57  and  _59
REMARK   27  A    between atoms: _59  and  _60
REMARK   28  A    between atoms: _59  and  _62
REMARK   29  A    between atoms: _62  and  _63
REMARK   30  A    between atoms: _68  and  _70
REMARK   31  A    between atoms: _70  and  _71
REMARK   32  A    between atoms: _74  and  _76
REMARK   33  A    between atoms: _76  and  _77
REMARK   34  A    between atoms: _76  and  _79
REMARK   35  A    between atoms: _79  and  _80
REMARK   36  A    between atoms: _85  and  _87
REMARK   37  A    between atoms: _87  and  _88
REMARK   38  A    between atoms: _87  and  _90
REMARK   39  A    between atoms: _90  and  _91
REMARK   40  A    between atoms: _93  and  _95
REMARK   41  A    between atoms: _95  and  _96
REMARK   42  A    between atoms: _95  and  _98
REMARK   43  A    between atoms: _102  and  _103
REMARK   44  A    between atoms: _108  and  _110
REMARK   45  A    between atoms: _110  and  _111
REMARK   46  A    between atoms: _110  and  _113
REMARK   47  A    between atoms: _113  and  _114
REMARK   48  A    between atoms: _117  and  _119
REMARK   49  A    between atoms: _119  and  _120
REMARK   50  A    between atoms: _119  and  _122
REMARK   51  A    between atoms: _122  and  _123
REMARK   52  A    between atoms: _126  and  _128
REMARK   53  A    between atoms: _128  and  _129
REMARK   54  A    between atoms: _128  and  _131
REMARK   55  A    between atoms: _131  and  _132
REMARK   56  A    between atoms: _135  and  _137
REMARK   57  A    between atoms: _137  and  _138
REMARK   58  A    between atoms: _137  and  _140
REMARK   59  A    between atoms: _143  and  _145
REMARK   60  A    between atoms: _145  and  _146
REMARK   61  A    between atoms: _145  and  _148
REMARK   62  A    between atoms: _148  and  _149
REMARK   63  A    between atoms: _152  and  _154
REMARK   64  A    between atoms: _154  and  _155
REMARK   65  A    between atoms: _154  and  _157
REMARK   66  A    between atoms: _157  and  _158
REMARK   67  A    between atoms: _160  and  _162
REMARK   68  A    between atoms: _162  and  _163
REMARK   69  A    between atoms: _162  and  _165
REMARK   70  A    between atoms: _165  and  _166
REMARK   71  A    between atoms: _166  and  _167
REMARK   72  A    between atoms: _167  and  _168
REMARK   73  A    between atoms: _177  and  _179
REMARK   74  A    between atoms: _179  and  _180
REMARK   75  A    between atoms: _183  and  _184
REMARK   76  A    between atoms: _189  and  _191
REMARK   77  A    between atoms: _191  and  _192
REMARK   78  A    between atoms: _191  and  _194
REMARK   79  A    between atoms: _194  and  _195
REMARK   80  A    between atoms: _198  and  _200
REMARK   81  A    between atoms: _200  and  _201
REMARK   82  A    between atoms: _200  and  _203
REMARK   83  A    between atoms: _203  and  _204
REMARK   84  A    between atoms: _206  and  _208
REMARK   85  A    between atoms: _208  and  _209
REMARK   86  A    between atoms: _208  and  _211
REMARK   87  A    between atoms: _211  and  _212
REMARK   88  A    between atoms: _212  and  _213
REMARK   89  A    between atoms: _213  and  _214
REMARK   90  A    between atoms: _214  and  _215
REMARK   91  A    between atoms: _219  and  _221
REMARK   92  A    between atoms: _221  and  _222
REMARK   93  A    between atoms: _221  and  _224
REMARK   94  A    between atoms: _224  and  _225
REMARK   95  A    between atoms: _227  and  _229
REMARK   96  A    between atoms: _229  and  _230
REMARK   97  A    between atoms: _229  and  _232
REMARK   98  A    between atoms: _232  and  _233
REMARK   99  A    between atoms: _236  and  _238
REMARK  100  A    between atoms: _238  and  _239
REMARK  101  A    between atoms: _238  and  _241
REMARK  102  A    between atoms: _244  and  _246
REMARK  103  A    between atoms: _246  and  _247
REMARK  104  A    between atoms: _246  and  _249
REMARK  105  A    between atoms: _252  and  _254
REMARK  106  A    between atoms: _254  and  _255
REMARK  107  A    between atoms: _259  and  _260
REMARK  108  A    between atoms: _265  and  _267
REMARK  109  A    between atoms: _267  and  _268
REMARK  110  A    between atoms: _267  and  _270
REMARK  111  A    between atoms: _270  and  _271
REMARK  112  A    between atoms: _271  and  _272
REMARK  113  A    between atoms: _275  and  _277
REMARK  114  A    between atoms: _277  and  _278
REMARK  115  A    between atoms: _277  and  _280
REMARK  116  A    between atoms: _280  and  _281
REMARK  117  A    between atoms: _291  and  _293
REMARK  118  A    between atoms: _293  and  _294
REMARK  119  A    between atoms: _293  and  _296
REMARK  120  A    between atoms: _296  and  _297
REMARK  121  A    between atoms: _297  and  _298
REMARK  122  A    between atoms: _300  and  _302
REMARK  123  A    between atoms: _302  and  _303
REMARK  124  A    between atoms: _302  and  _305
REMARK  125  A    between atoms: _305  and  _306
REMARK  126  A    between atoms: _313  and  _314
REMARK  127  A    between atoms: _319  and  _321
REMARK  128  A    between atoms: _321  and  _322
REMARK  129  A    between atoms: _325  and  _327
REMARK  130  A    between atoms: _327  and  _328
REMARK  131  A    between atoms: _327  and  _330
REMARK  132  A    between atoms: _330  and  _331
REMARK  133  A    between atoms: _334  and  _336
REMARK  134  A    between atoms: _336  and  _337
REMARK  135  A    between atoms: _339  and  _341
REMARK  136  A    between atoms: _341  and  _342
REMARK  137  A    between atoms: _341  and  _344
REMARK  138  A    between atoms: _344  and  _345
REMARK  139  A    between atoms: _348  and  _350
REMARK  140  A    between atoms: _350  and  _351
REMARK  141  A    between atoms: _353  and  _355
REMARK  142  A    between atoms: _355  and  _356
REMARK  143  A    between atoms: _355  and  _358
REMARK  144  A    between atoms: _358  and  _359
REMARK  145  A    between atoms: _364  and  _366
REMARK  146  A    between atoms: _366  and  _367
REMARK  147  A    between atoms: _366  and  _369
REMARK  148  A    between atoms: _369  and  _370
REMARK  149  A    between atoms: _373  and  _375
REMARK  150  A    between atoms: _375  and  _376
REMARK  151  A    between atoms: _378  and  _380
REMARK  152  A    between atoms: _380  and  _381
REMARK  153  A    between atoms: _380  and  _383
REMARK  154  A    between atoms: _383  and  _384
REMARK  155  A    between atoms: _390  and  _392
REMARK  156  A    between atoms: _392  and  _393
REMARK  157  A    between atoms: _392  and  _395
REMARK  158  A    between atoms: _395  and  _396
REMARK  159  A    between atoms: _396  and  _397
REMARK  160  A    between atoms: _397  and  _398
REMARK  161  A    between atoms: _398  and  _399
REMARK  162  A    between atoms: _403  and  _405
REMARK  163  A    between atoms: _405  and  _406
REMARK  164  A    between atoms: _405  and  _408
REMARK  165  A    between atoms: _408  and  _409
REMARK  166  A    between atoms: _415  and  _417
REMARK  167  A    between atoms: _417  and  _418
REMARK  168  A    between atoms: _417  and  _420
REMARK  169  A    between atoms: _420  and  _421
REMARK  170  A    between atoms: _424  and  _426
REMARK  171  A    between atoms: _426  and  _427
REMARK  172  A    between atoms: _426  and  _429
REMARK  173  A    between atoms: _429  and  _430
REMARK  174  A    between atoms: _433  and  _435
REMARK  175  A    between atoms: _435  and  _436
REMARK  176  A    between atoms: _435  and  _438
REMARK  177  A    between atoms: _438  and  _439
REMARK  178  A    between atoms: _445  and  _446
REMARK  179  A    between atoms: _451  and  _453
REMARK  180  A    between atoms: _453  and  _454
REMARK  181  A    between atoms: _453  and  _456
REMARK  182  A    between atoms: _456  and  _457
REMARK  183  A    between atoms: _459  and  _461
REMARK  184  A    between atoms: _461  and  _462
REMARK  185  A    between atoms: _461  and  _464
REMARK  186  A    between atoms: _464  and  _465
REMARK  187  A    between atoms: _468  and  _470
REMARK  188  A    between atoms: _470  and  _471
REMARK  189  A    between atoms: _470  and  _473
REMARK  190  A    between atoms: _473  and  _474
REMARK  191  A    between atoms: _479  and  _481
REMARK  192  A    between atoms: _481  and  _482
REMARK  193  A    between atoms: _481  and  _484
REMARK  194  A    between atoms: _484  and  _485
REMARK  195  A    between atoms: _485  and  _486
REMARK  196  A    between atoms: _489  and  _491
REMARK  197  A    between atoms: _491  and  _492
REMARK  198  A    between atoms: _491  and  _494
REMARK  199  A    between atoms: _494  and  _495
REMARK  200  A    between atoms: _500  and  _502
REMARK  201  A    between atoms: _502  and  _503
REMARK  202  A    between atoms: _502  and  _505
REMARK  203  A    between atoms: _505  and  _506
REMARK  204  A    between atoms: _509  and  _511
REMARK  205  A    between atoms: _511  and  _512
REMARK  206  A    between atoms: _511  and  _514
REMARK  207  A    between atoms: _514  and  _515
REMARK                            x       y       z     vdW  Elec       q    Type
REMARK                         _______ _______ _______ _____ _____    ______ ____
ROOT
ATOM      1  O   HOH     1     -20.969  16.233 -22.921  0.00  0.00    +0.000 OA
ENDROOT
TORSDOF 0
REMARK  Name = ../refined-set-2016/3q71/3q71_pocket.pdb
REMARK  207 active torsions:
REMARK  status: ('A' for Active; 'I' for Inactive)
REMARK    1  A    between atoms: _1  and  _3
REMARK    2  A    between atoms: _3  and  _4
REMARK    3  A    between atoms: _3  and  _6
REMARK    4  A    between atoms: _9  and  _11
REMARK    5  A    between atoms: _11  and  _12
REMARK    6  A    between atoms: _11  and  _14
REMARK    7  A    between atoms: _14  and  _15
REMARK    8  A    between atoms: _15  and  _16
REMARK    9  A    between atoms: _16  and  _17
REMARK   10  A    between atoms: _17  and  _18
REMARK   11  A    between atoms: _22  and  _24
REMARK   12  A    between atoms: _24  and  _25
REMARK   13  A    between atoms: _24  and  _27
REMARK   14  A    between atoms: _27  and  _28
REMARK   15  A    between atoms: _28  and  _29
REMARK   16  A    between atoms: _32  and  _34
REMARK   17  A    between atoms: _34  and  _35
REMARK   18  A    between atoms: _37  and  _39
REMARK   19  A    between atoms: _39  and  _40
REMARK   20  A    between atoms: _39  and  _42
REMARK   21  A    between atoms: _45  and  _47
REMARK   22  A    between atoms: _47  and  _48
REMARK   23  A    between atoms: _47  and  _50
REMARK   24  A    between atoms: _50  and  _51
REMARK   25  A    between atoms: _51  and  _52
REMARK   26  A    between atoms: _57  and  _59
REMARK   27  A    between atoms: _59  and  _60
REMARK   28  A    between atoms: _59  and  _62
REMARK   29  A    between atoms: _62  and  _63
REMARK   30  A    between atoms: _68  and  _70
REMARK   31  A    between atoms: _70  and  _71
REMARK   32  A    between atoms: _74  and  _76
REMARK   33  A    between atoms: _76  and  _77
REMARK   34  A    between atoms: _76  and  _79
REMARK   35  A    between atoms: _79  and  _80
REMARK   36  A    between atoms: _85  and  _87
REMARK   37  A    between atoms: _87  and  _88
REMARK   38  A    between atoms: _87  and  _90
REMARK   39  A    between atoms: _90  and  _91
REMARK   40  A    between atoms: _93  and  _95
REMARK   41  A    between atoms: _95  and  _96
REMARK   42  A    between atoms: _95  and  _98
REMARK   43  A    between atoms: _102  and  _103
REMARK   44  A    between atoms: _108  and  _110
REMARK   45  A    between atoms: _110  and  _111
REMARK   46  A    between atoms: _110  and  _113
REMARK   47  A    between atoms: _113  and  _114
REMARK   48  A    between atoms: _117  and  _119
REMARK   49  A    between atoms: _119  and  _120
REMARK   50  A    between atoms: _119  and  _122
REMARK   51  A    between atoms: _122  and  _123
REMARK   52  A    between atoms: _126  and  _128
REMARK   53  A    between atoms: _128  and  _129
REMARK   54  A    between atoms: _128  and  _131
REMARK   55  A    between atoms: _131  and  _132
REMARK   56  A    between atoms: _135  and  _137
REMARK   57  A    between atoms: _137  and  _138
REMARK   58  A    between atoms: _137  and  _140
REMARK   59  A    between atoms: _143  and  _145
REMARK   60  A    between atoms: _145  and  _146
REMARK   61  A    between atoms: _145  and  _148
REMARK   62  A    between atoms: _148  and  _149
REMARK   63  A    between atoms: _152  and  _154
REMARK   64  A    between atoms: _154  and  _155
REMARK   65  A    between atoms: _154  and  _157
REMARK   66  A    between atoms: _157  and  _158
REMARK   67  A    between atoms: _160  and  _162
REMARK   68  A    between atoms: _162  and  _163
REMARK   69  A    between atoms: _162  and  _165
REMARK   70  A    between atoms: _165  and  _166
REMARK   71  A    between atoms: _166  and  _167
REMARK   72  A    between atoms: _167  and  _168
REMARK   73  A    between atoms: _177  and  _179
REMARK   74  A    between atoms: _179  and  _180
REMARK   75  A    between atoms: _183  and  _184
REMARK   76  A    between atoms: _189  and  _191
REMARK   77  A    between atoms: _191  and  _192
REMARK   78  A    between atoms: _191  and  _194
REMARK   79  A    between atoms: _194  and  _195
REMARK   80  A    between atoms: _198  and  _200
REMARK   81  A    between atoms: _200  and  _201
REMARK   82  A    between atoms: _200  and  _203
REMARK   83  A    between atoms: _203  and  _204
REMARK   84  A    between atoms: _206  and  _208
REMARK   85  A    between atoms: _208  and  _209
REMARK   86  A    between atoms: _208  and  _211
REMARK   87  A    between atoms: _211  and  _212
REMARK   88  A    between atoms: _212  and  _213
REMARK   89  A    between atoms: _213  and  _214
REMARK   90  A    between atoms: _214  and  _215
REMARK   91  A    between atoms: _219  and  _221
REMARK   92  A    between atoms: _221  and  _222
REMARK   93  A    between atoms: _221  and  _224
REMARK   94  A    between atoms: _224  and  _225
REMARK   95  A    between atoms: _227  and  _229
REMARK   96  A    between atoms: _229  and  _230
REMARK   97  A    between atoms: _229  and  _232
REMARK   98  A    between atoms: _232  and  _233
REMARK   99  A    between atoms: _236  and  _238
REMARK  100  A    between atoms: _238  and  _239
REMARK  101  A    between atoms: _238  and  _241
REMARK  102  A    between atoms: _244  and  _246
REMARK  103  A    between atoms: _246  and  _247
REMARK  104  A    between atoms: _246  and  _249
REMARK  105  A    between atoms: _252  and  _254
REMARK  106  A    between atoms: _254  and  _255
REMARK  107  A    between atoms: _259  and  _260
REMARK  108  A    between atoms: _265  and  _267
REMARK  109  A    between atoms: _267  and  _268
REMARK  110  A    between atoms: _267  and  _270
REMARK  111  A    between atoms: _270  and  _271
REMARK  112  A    between atoms: _271  and  _272
REMARK  113  A    between atoms: _275  and  _277
REMARK  114  A    between atoms: _277  and  _278
REMARK  115  A    between atoms: _277  and  _280
REMARK  116  A    between atoms: _280  and  _281
REMARK  117  A    between atoms: _291  and  _293
REMARK  118  A    between atoms: _293  and  _294
REMARK  119  A    between atoms: _293  and  _296
REMARK  120  A    between atoms: _296  and  _297
REMARK  121  A    between atoms: _297  and  _298
REMARK  122  A    between atoms: _300  and  _302
REMARK  123  A    between atoms: _302  and  _303
REMARK  124  A    between atoms: _302  and  _305
REMARK  125  A    between atoms: _305  and  _306
REMARK  126  A    between atoms: _313  and  _314
REMARK  127  A    between atoms: _319  and  _321
REMARK  128  A    between atoms: _321  and  _322
REMARK  129  A    between atoms: _325  and  _327
REMARK  130  A    between atoms: _327  and  _328
REMARK  131  A    between atoms: _327  and  _330
REMARK  132  A    between atoms: _330  and  _331
REMARK  133  A    between atoms: _334  and  _336
REMARK  134  A    between atoms: _336  and  _337
REMARK  135  A    between atoms: _339  and  _341
REMARK  136  A    between atoms: _341  and  _342
REMARK  137  A    between atoms: _341  and  _344
REMARK  138  A    between atoms: _344  and  _345
REMARK  139  A    between atoms: _348  and  _350
REMARK  140  A    between atoms: _350  and  _351
REMARK  141  A    between atoms: _353  and  _355
REMARK  142  A    between atoms: _355  and  _356
REMARK  143  A    between atoms: _355  and  _358
REMARK  144  A    between atoms: _358  and  _359
REMARK  145  A    between atoms: _364  and  _366
REMARK  146  A    between atoms: _366  and  _367
REMARK  147  A    between atoms: _366  and  _369
REMARK  148  A    between atoms: _369  and  _370
REMARK  149  A    between atoms: _373  and  _375
REMARK  150  A    between atoms: _375  and  _376
REMARK  151  A    between atoms: _378  and  _380
REMARK  152  A    between atoms: _380  and  _381
REMARK  153  A    between atoms: _380  and  _383
REMARK  154  A    between atoms: _383  and  _384
REMARK  155  A    between atoms: _390  and  _392
REMARK  156  A    between atoms: _392  and  _393
REMARK  157  A    between atoms: _392  and  _395
REMARK  158  A    between atoms: _395  and  _396
REMARK  159  A    between atoms: _396  and  _397
REMARK  160  A    between atoms: _397  and  _398
REMARK  161  A    between atoms: _398  and  _399
REMARK  162  A    between atoms: _403  and  _405
REMARK  163  A    between atoms: _405  and  _406
REMARK  164  A    between atoms: _405  and  _408
REMARK  165  A    between atoms: _408  and  _409
REMARK  166  A    between atoms: _415  and  _417
REMARK  167  A    between atoms: _417  and  _418
REMARK  168  A    between atoms: _417  and  _420
REMARK  169  A    between atoms: _420  and  _421
REMARK  170  A    between atoms: _424  and  _426
REMARK  171  A    between atoms: _426  and  _427
REMARK  172  A    between atoms: _426  and  _429
REMARK  173  A    between atoms: _429  and  _430
REMARK  174  A    between atoms: _433  and  _435
REMARK  175  A    between atoms: _435  and  _436
REMARK  176  A    between atoms: _435  and  _438
REMARK  177  A    between atoms: _438  and  _439
REMARK  178  A    between atoms: _445  and  _446
REMARK  179  A    between atoms: _451  and  _453
REMARK  180  A    between atoms: _453  and  _454
REMARK  181  A    between atoms: _453  and  _456
REMARK  182  A    between atoms: _456  and  _457
REMARK  183  A    between atoms: _459  and  _461
REMARK  184  A    between atoms: _461  and  _462
REMARK  185  A    between atoms: _461  and  _464
REMARK  186  A    between atoms: _464  and  _465
REMARK  187  A    between atoms: _468  and  _470
REMARK  188  A    between atoms: _470  and  _471
REMARK  189  A    between atoms: _470  and  _473
REMARK  190  A    between atoms: _473  and  _474
REMARK  191  A    between atoms: _479  and  _481
REMARK  192  A    between atoms: _481  and  _482
REMARK  193  A    between atoms: _481  and  _484
REMARK  194  A    between atoms: _484  and  _485
REMARK  195  A    between atoms: _485  and  _486
REMARK  196  A    between atoms: _489  and  _491
REMARK  197  A    between atoms: _491  and  _492
REMARK  198  A    between atoms: _491  and  _494
REMARK  199  A    between atoms: _494  and  _495
REMARK  200  A    between atoms: _500  and  _502
REMARK  201  A    between atoms: _502  and  _503
REMARK  202  A    between atoms: _502  and  _505
REMARK  203  A    between atoms: _505  and  _506
REMARK  204  A    between atoms: _509  and  _511
REMARK  205  A    between atoms: _511  and  _512
REMARK  206  A    between atoms: _511  and  _514
REMARK  207  A    between atoms: _514  and  _515
REMARK                            x       y       z     vdW  Elec       q    Type
REMARK                         _______ _______ _______ _____ _____    ______ ____
ROOT
ATOM      1  O   HOH     1     -25.285  19.648 -30.864  0.00  0.00    +0.000 OA
ENDROOT
TORSDOF 0
REMARK  Name = ../refined-set-2016/3q71/3q71_pocket.pdb
REMARK  207 active torsions:
REMARK  status: ('A' for Active; 'I' for Inactive)
REMARK    1  A    between atoms: _1  and  _3
REMARK    2  A    between atoms: _3  and  _4
REMARK    3  A    between atoms: _3  and  _6
REMARK    4  A    between atoms: _9  and  _11
REMARK    5  A    between atoms: _11  and  _12
REMARK    6  A    between atoms: _11  and  _14
REMARK    7  A    between atoms: _14  and  _15
REMARK    8  A    between atoms: _15  and  _16
REMARK    9  A    between atoms: _16  and  _17
REMARK   10  A    between atoms: _17  and  _18
REMARK   11  A    between atoms: _22  and  _24
REMARK   12  A    between atoms: _24  and  _25
REMARK   13  A    between atoms: _24  and  _27
REMARK   14  A    between atoms: _27  and  _28
REMARK   15  A    between atoms: _28  and  _29
REMARK   16  A    between atoms: _32  and  _34
REMARK   17  A    between atoms: _34  and  _35
REMARK   18  A    between atoms: _37  and  _39
REMARK   19  A    between atoms: _39  and  _40
REMARK   20  A    between atoms: _39  and  _42
REMARK   21  A    between atoms: _45  and  _47
REMARK   22  A    between atoms: _47  and  _48
REMARK   23  A    between atoms: _47  and  _50
REMARK   24  A    between atoms: _50  and  _51
REMARK   25  A    between atoms: _51  and  _52
REMARK   26  A    between atoms: _57  and  _59
REMARK   27  A    between atoms: _59  and  _60
REMARK   28  A    between atoms: _59  and  _62
REMARK   29  A    between atoms: _62  and  _63
REMARK   30  A    between atoms: _68  and  _70
REMARK   31  A    between atoms: _70  and  _71
REMARK   32  A    between atoms: _74  and  _76
REMARK   33  A    between atoms: _76  and  _77
REMARK   34  A    between atoms: _76  and  _79
REMARK   35  A    between atoms: _79  and  _80
REMARK   36  A    between atoms: _85  and  _87
REMARK   37  A    between atoms: _87  and  _88
REMARK   38  A    between atoms: _87  and  _90
REMARK   39  A    between atoms: _90  and  _91
REMARK   40  A    between atoms: _93  and  _95
REMARK   41  A    between atoms: _95  and  _96
REMARK   42  A    between atoms: _95  and  _98
REMARK   43  A    between atoms: _102  and  _103
REMARK   44  A    between atoms: _108  and  _110
REMARK   45  A    between atoms: _110  and  _111
REMARK   46  A    between atoms: _110  and  _113
REMARK   47  A    between atoms: _113  and  _114
REMARK   48  A    between atoms: _117  and  _119
REMARK   49  A    between atoms: _119  and  _120
REMARK   50  A    between atoms: _119  and  _122
REMARK   51  A    between atoms: _122  and  _123
REMARK   52  A    between atoms: _126  and  _128
REMARK   53  A    between atoms: _128  and  _129
REMARK   54  A    between atoms: _128  and  _131
REMARK   55  A    between atoms: _131  and  _132
REMARK   56  A    between atoms: _135  and  _137
REMARK   57  A    between atoms: _137  and  _138
REMARK   58  A    between atoms: _137  and  _140
REMARK   59  A    between atoms: _143  and  _145
REMARK   60  A    between atoms: _145  and  _146
REMARK   61  A    between atoms: _145  and  _148
REMARK   62  A    between atoms: _148  and  _149
REMARK   63  A    between atoms: _152  and  _154
REMARK   64  A    between atoms: _154  and  _155
REMARK   65  A    between atoms: _154  and  _157
REMARK   66  A    between atoms: _157  and  _158
REMARK   67  A    between atoms: _160  and  _162
REMARK   68  A    between atoms: _162  and  _163
REMARK   69  A    between atoms: _162  and  _165
REMARK   70  A    between atoms: _165  and  _166
REMARK   71  A    between atoms: _166  and  _167
REMARK   72  A    between atoms: _167  and  _168
REMARK   73  A    between atoms: _177  and  _179
REMARK   74  A    between atoms: _179  and  _180
REMARK   75  A    between atoms: _183  and  _184
REMARK   76  A    between atoms: _189  and  _191
REMARK   77  A    between atoms: _191  and  _192
REMARK   78  A    between atoms: _191  and  _194
REMARK   79  A    between atoms: _194  and  _195
REMARK   80  A    between atoms: _198  and  _200
REMARK   81  A    between atoms: _200  and  _201
REMARK   82  A    between atoms: _200  and  _203
REMARK   83  A    between atoms: _203  and  _204
REMARK   84  A    between atoms: _206  and  _208
REMARK   85  A    between atoms: _208  and  _209
REMARK   86  A    between atoms: _208  and  _211
REMARK   87  A    between atoms: _211  and  _212
REMARK   88  A    between atoms: _212  and  _213
REMARK   89  A    between atoms: _213  and  _214
REMARK   90  A    between atoms: _214  and  _215
REMARK   91  A    between atoms: _219  and  _221
REMARK   92  A    between atoms: _221  and  _222
REMARK   93  A    between atoms: _221  and  _224
REMARK   94  A    between atoms: _224  and  _225
REMARK   95  A    between atoms: _227  and  _229
REMARK   96  A    between atoms: _229  and  _230
REMARK   97  A    between atoms: _229  and  _232
REMARK   98  A    between atoms: _232  and  _233
REMARK   99  A    between atoms: _236  and  _238
REMARK  100  A    between atoms: _238  and  _239
REMARK  101  A    between atoms: _238  and  _241
REMARK  102  A    between atoms: _244  and  _246
REMARK  103  A    between atoms: _246  and  _247
REMARK  104  A    between atoms: _246  and  _249
REMARK  105  A    between atoms: _252  and  _254
REMARK  106  A    between atoms: _254  and  _255
REMARK  107  A    between atoms: _259  and  _260
REMARK  108  A    between atoms: _265  and  _267
REMARK  109  A    between atoms: _267  and  _268
REMARK  110  A    between atoms: _267  and  _270
REMARK  111  A    between atoms: _270  and  _271
REMARK  112  A    between atoms: _271  and  _272
REMARK  113  A    between atoms: _275  and  _277
REMARK  114  A    between atoms: _277  and  _278
REMARK  115  A    between atoms: _277  and  _280
REMARK  116  A    between atoms: _280  and  _281
REMARK  117  A    between atoms: _291  and  _293
REMARK  118  A    between atoms: _293  and  _294
REMARK  119  A    between atoms: _293  and  _296
REMARK  120  A    between atoms: _296  and  _297
REMARK  121  A    between atoms: _297  and  _298
REMARK  122  A    between atoms: _300  and  _302
REMARK  123  A    between atoms: _302  and  _303
REMARK  124  A    between atoms: _302  and  _305
REMARK  125  A    between atoms: _305  and  _306
REMARK  126  A    between atoms: _313  and  _314
REMARK  127  A    between atoms: _319  and  _321
REMARK  128  A    between atoms: _321  and  _322
REMARK  129  A    between atoms: _325  and  _327
REMARK  130  A    between atoms: _327  and  _328
REMARK  131  A    between atoms: _327  and  _330
REMARK  132  A    between atoms: _330  and  _331
REMARK  133  A    between atoms: _334  and  _336
REMARK  134  A    between atoms: _336  and  _337
REMARK  135  A    between atoms: _339  and  _341
REMARK  136  A    between atoms: _341  and  _342
REMARK  137  A    between atoms: _341  and  _344
REMARK  138  A    between atoms: _344  and  _345
REMARK  139  A    between atoms: _348  and  _350
REMARK  140  A    between atoms: _350  and  _351
REMARK  141  A    between atoms: _353  and  _355
REMARK  142  A    between atoms: _355  and  _356
REMARK  143  A    between atoms: _355  and  _358
REMARK  144  A    between atoms: _358  and  _359
REMARK  145  A    between atoms: _364  and  _366
REMARK  146  A    between atoms: _366  and  _367
REMARK  147  A    between atoms: _366  and  _369
REMARK  148  A    between atoms: _369  and  _370
REMARK  149  A    between atoms: _373  and  _375
REMARK  150  A    between atoms: _375  and  _376
REMARK  151  A    between atoms: _378  and  _380
REMARK  152  A    between atoms: _380  and  _381
REMARK  153  A    between atoms: _380  and  _383
REMARK  154  A    between atoms: _383  and  _384
REMARK  155  A    between atoms: _390  and  _392
REMARK  156  A    between atoms: _392  and  _393
REMARK  157  A    between atoms: _392  and  _395
REMARK  158  A    between atoms: _395  and  _396
REMARK  159  A    between atoms: _396  and  _397
REMARK  160  A    between atoms: _397  and  _398
REMARK  161  A    between atoms: _398  and  _399
REMARK  162  A    between atoms: _403  and  _405
REMARK  163  A    between atoms: _405  and  _406
REMARK  164  A    between atoms: _405  and  _408
REMARK  165  A    between atoms: _408  and  _409
REMARK  166  A    between atoms: _415  and  _417
REMARK  167  A    between atoms: _417  and  _418
REMARK  168  A    between atoms: _417  and  _420
REMARK  169  A    between atoms: _420  and  _421
REMARK  170  A    between atoms: _424  and  _426
REMARK  171  A    between atoms: _426  and  _427
REMARK  172  A    between atoms: _426  and  _429
REMARK  173  A    between atoms: _429  and  _430
REMARK  174  A    between atoms: _433  and  _435
REMARK  175  A    between atoms: _435  and  _436
REMARK  176  A    between atoms: _435  and  _438
REMARK  177  A    between atoms: _438  and  _439
REMARK  178  A    between atoms: _445  and  _446
REMARK  179  A    between atoms: _451  and  _453
REMARK  180  A    between atoms: _453  and  _454
REMARK  181  A    between atoms: _453  and  _456
REMARK  182  A    between atoms: _456  and  _457
REMARK  183  A    between atoms: _459  and  _461
REMARK  184  A    between atoms: _461  and  _462
REMARK  185  A    between atoms: _461  and  _464
REMARK  186  A    between atoms: _464  and  _465
REMARK  187  A    between atoms: _468  and  _470
REMARK  188  A    between atoms: _470  and  _471
REMARK  189  A    between atoms: _470  and  _473
REMARK  190  A    between atoms: _473  and  _474
REMARK  191  A    between atoms: _479  and  _481
REMARK  192  A    between atoms: _481  and  _482
REMARK  193  A    between atoms: _481  and  _484
REMARK  194  A    between atoms: _484  and  _485
REMARK  195  A    between atoms: _485  and  _486
REMARK  196  A    between atoms: _489  and  _491
REMARK  197  A    between atoms: _491  and  _492
REMARK  198  A    between atoms: _491  and  _494
REMARK  199  A    between atoms: _494  and  _495
REMARK  200  A    between atoms: _500  and  _502
REMARK  201  A    between atoms: _502  and  _503
REMARK  202  A    between atoms: _502  and  _505
REMARK  203  A    between atoms: _505  and  _506
REMARK  204  A    between atoms: _509  and  _511
REMARK  205  A    between atoms: _511  and  _512
REMARK  206  A    between atoms: _511  and  _514
REMARK  207  A    between atoms: _514  and  _515
REMARK                            x       y       z     vdW  Elec       q    Type
REMARK                         _______ _______ _______ _____ _____    ______ ____
ROOT
ATOM      1  O   HOH     1     -25.871  16.671 -27.328  0.00  0.00    +0.000 OA
ENDROOT
TORSDOF 0
REMARK  Name = ../refined-set-2016/3q71/3q71_pocket.pdb
REMARK  207 active torsions:
REMARK  status: ('A' for Active; 'I' for Inactive)
REMARK    1  A    between atoms: _1  and  _3
REMARK    2  A    between atoms: _3  and  _4
REMARK    3  A    between atoms: _3  and  _6
REMARK    4  A    between atoms: _9  and  _11
REMARK    5  A    between atoms: _11  and  _12
REMARK    6  A    between atoms: _11  and  _14
REMARK    7  A    between atoms: _14  and  _15
REMARK    8  A    between atoms: _15  and  _16
REMARK    9  A    between atoms: _16  and  _17
REMARK   10  A    between atoms: _17  and  _18
REMARK   11  A    between atoms: _22  and  _24
REMARK   12  A    between atoms: _24  and  _25
REMARK   13  A    between atoms: _24  and  _27
REMARK   14  A    between atoms: _27  and  _28
REMARK   15  A    between atoms: _28  and  _29
REMARK   16  A    between atoms: _32  and  _34
REMARK   17  A    between atoms: _34  and  _35
REMARK   18  A    between atoms: _37  and  _39
REMARK   19  A    between atoms: _39  and  _40
REMARK   20  A    between atoms: _39  and  _42
REMARK   21  A    between atoms: _45  and  _47
REMARK   22  A    between atoms: _47  and  _48
REMARK   23  A    between atoms: _47  and  _50
REMARK   24  A    between atoms: _50  and  _51
REMARK   25  A    between atoms: _51  and  _52
REMARK   26  A    between atoms: _57  and  _59
REMARK   27  A    between atoms: _59  and  _60
REMARK   28  A    between atoms: _59  and  _62
REMARK   29  A    between atoms: _62  and  _63
REMARK   30  A    between atoms: _68  and  _70
REMARK   31  A    between atoms: _70  and  _71
REMARK   32  A    between atoms: _74  and  _76
REMARK   33  A    between atoms: _76  and  _77
REMARK   34  A    between atoms: _76  and  _79
REMARK   35  A    between atoms: _79  and  _80
REMARK   36  A    between atoms: _85  and  _87
REMARK   37  A    between atoms: _87  and  _88
REMARK   38  A    between atoms: _87  and  _90
REMARK   39  A    between atoms: _90  and  _91
REMARK   40  A    between atoms: _93  and  _95
REMARK   41  A    between atoms: _95  and  _96
REMARK   42  A    between atoms: _95  and  _98
REMARK   43  A    between atoms: _102  and  _103
REMARK   44  A    between atoms: _108  and  _110
REMARK   45  A    between atoms: _110  and  _111
REMARK   46  A    between atoms: _110  and  _113
REMARK   47  A    between atoms: _113  and  _114
REMARK   48  A    between atoms: _117  and  _119
REMARK   49  A    between atoms: _119  and  _120
REMARK   50  A    between atoms: _119  and  _122
REMARK   51  A    between atoms: _122  and  _123
REMARK   52  A    between atoms: _126  and  _128
REMARK   53  A    between atoms: _128  and  _129
REMARK   54  A    between atoms: _128  and  _131
REMARK   55  A    between atoms: _131  and  _132
REMARK   56  A    between atoms: _135  and  _137
REMARK   57  A    between atoms: _137  and  _138
REMARK   58  A    between atoms: _137  and  _140
REMARK   59  A    between atoms: _143  and  _145
REMARK   60  A    between atoms: _145  and  _146
REMARK   61  A    between atoms: _145  and  _148
REMARK   62  A    between atoms: _148  and  _149
REMARK   63  A    between atoms: _152  and  _154
REMARK   64  A    between atoms: _154  and  _155
REMARK   65  A    between atoms: _154  and  _157
REMARK   66  A    between atoms: _157  and  _158
REMARK   67  A    between atoms: _160  and  _162
REMARK   68  A    between atoms: _162  and  _163
REMARK   69  A    between atoms: _162  and  _165
REMARK   70  A    between atoms: _165  and  _166
REMARK   71  A    between atoms: _166  and  _167
REMARK   72  A    between atoms: _167  and  _168
REMARK   73  A    between atoms: _177  and  _179
REMARK   74  A    between atoms: _179  and  _180
REMARK   75  A    between atoms: _183  and  _184
REMARK   76  A    between atoms: _189  and  _191
REMARK   77  A    between atoms: _191  and  _192
REMARK   78  A    between atoms: _191  and  _194
REMARK   79  A    between atoms: _194  and  _195
REMARK   80  A    between atoms: _198  and  _200
REMARK   81  A    between atoms: _200  and  _201
REMARK   82  A    between atoms: _200  and  _203
REMARK   83  A    between atoms: _203  and  _204
REMARK   84  A    between atoms: _206  and  _208
REMARK   85  A    between atoms: _208  and  _209
REMARK   86  A    between atoms: _208  and  _211
REMARK   87  A    between atoms: _211  and  _212
REMARK   88  A    between atoms: _212  and  _213
REMARK   89  A    between atoms: _213  and  _214
REMARK   90  A    between atoms: _214  and  _215
REMARK   91  A    between atoms: _219  and  _221
REMARK   92  A    between atoms: _221  and  _222
REMARK   93  A    between atoms: _221  and  _224
REMARK   94  A    between atoms: _224  and  _225
REMARK   95  A    between atoms: _227  and  _229
REMARK   96  A    between atoms: _229  and  _230
REMARK   97  A    between atoms: _229  and  _232
REMARK   98  A    between atoms: _232  and  _233
REMARK   99  A    between atoms: _236  and  _238
REMARK  100  A    between atoms: _238  and  _239
REMARK  101  A    between atoms: _238  and  _241
REMARK  102  A    between atoms: _244  and  _246
REMARK  103  A    between atoms: _246  and  _247
REMARK  104  A    between atoms: _246  and  _249
REMARK  105  A    between atoms: _252  and  _254
REMARK  106  A    between atoms: _254  and  _255
REMARK  107  A    between atoms: _259  and  _260
REMARK  108  A    between atoms: _265  and  _267
REMARK  109  A    between atoms: _267  and  _268
REMARK  110  A    between atoms: _267  and  _270
REMARK  111  A    between atoms: _270  and  _271
REMARK  112  A    between atoms: _271  and  _272
REMARK  113  A    between atoms: _275  and  _277
REMARK  114  A    between atoms: _277  and  _278
REMARK  115  A    between atoms: _277  and  _280
REMARK  116  A    between atoms: _280  and  _281
REMARK  117  A    between atoms: _291  and  _293
REMARK  118  A    between atoms: _293  and  _294
REMARK  119  A    between atoms: _293  and  _296
REMARK  120  A    between atoms: _296  and  _297
REMARK  121  A    between atoms: _297  and  _298
REMARK  122  A    between atoms: _300  and  _302
REMARK  123  A    between atoms: _302  and  _303
REMARK  124  A    between atoms: _302  and  _305
REMARK  125  A    between atoms: _305  and  _306
REMARK  126  A    between atoms: _313  and  _314
REMARK  127  A    between atoms: _319  and  _321
REMARK  128  A    between atoms: _321  and  _322
REMARK  129  A    between atoms: _325  and  _327
REMARK  130  A    between atoms: _327  and  _328
REMARK  131  A    between atoms: _327  and  _330
REMARK  132  A    between atoms: _330  and  _331
REMARK  133  A    between atoms: _334  and  _336
REMARK  134  A    between atoms: _336  and  _337
REMARK  135  A    between atoms: _339  and  _341
REMARK  136  A    between atoms: _341  and  _342
REMARK  137  A    between atoms: _341  and  _344
REMARK  138  A    between atoms: _344  and  _345
REMARK  139  A    between atoms: _348  and  _350
REMARK  140  A    between atoms: _350  and  _351
REMARK  141  A    between atoms: _353  and  _355
REMARK  142  A    between atoms: _355  and  _356
REMARK  143  A    between atoms: _355  and  _358
REMARK  144  A    between atoms: _358  and  _359
REMARK  145  A    between atoms: _364  and  _366
REMARK  146  A    between atoms: _366  and  _367
REMARK  147  A    between atoms: _366  and  _369
REMARK  148  A    between atoms: _369  and  _370
REMARK  149  A    between atoms: _373  and  _375
REMARK  150  A    between atoms: _375  and  _376
REMARK  151  A    between atoms: _378  and  _380
REMARK  152  A    between atoms: _380  and  _381
REMARK  153  A    between atoms: _380  and  _383
REMARK  154  A    between atoms: _383  and  _384
REMARK  155  A    between atoms: _390  and  _392
REMARK  156  A    between atoms: _392  and  _393
REMARK  157  A    between atoms: _392  and  _395
REMARK  158  A    between atoms: _395  and  _396
REMARK  159  A    between atoms: _396  and  _397
REMARK  160  A    between atoms: _397  and  _398
REMARK  161  A    between atoms: _398  and  _399
REMARK  162  A    between atoms: _403  and  _405
REMARK  163  A    between atoms: _405  and  _406
REMARK  164  A    between atoms: _405  and  _408
REMARK  165  A    between atoms: _408  and  _409
REMARK  166  A    between atoms: _415  and  _417
REMARK  167  A    between atoms: _417  and  _418
REMARK  168  A    between atoms: _417  and  _420
REMARK  169  A    between atoms: _420  and  _421
REMARK  170  A    between atoms: _424  and  _426
REMARK  171  A    between atoms: _426  and  _427
REMARK  172  A    between atoms: _426  and  _429
REMARK  173  A    between atoms: _429  and  _430
REMARK  174  A    between atoms: _433  and  _435
REMARK  175  A    between atoms: _435  and  _436
REMARK  176  A    between atoms: _435  and  _438
REMARK  177  A    between atoms: _438  and  _439
REMARK  178  A    between atoms: _445  and  _446
REMARK  179  A    between atoms: _451  and  _453
REMARK  180  A    between atoms: _453  and  _454
REMARK  181  A    between atoms: _453  and  _456
REMARK  182  A    between atoms: _456  and  _457
REMARK  183  A    between atoms: _459  and  _461
REMARK  184  A    between atoms: _461  and  _462
REMARK  185  A    between atoms: _461  and  _464
REMARK  186  A    between atoms: _464  and  _465
REMARK  187  A    between atoms: _468  and  _470
REMARK  188  A    between atoms: _470  and  _471
REMARK  189  A    between atoms: _470  and  _473
REMARK  190  A    between atoms: _473  and  _474
REMARK  191  A    between atoms: _479  and  _481
REMARK  192  A    between atoms: _481  and  _482
REMARK  193  A    between atoms: _481  and  _484
REMARK  194  A    between atoms: _484  and  _485
REMARK  195  A    between atoms: _485  and  _486
REMARK  196  A    between atoms: _489  and  _491
REMARK  197  A    between atoms: _491  and  _492
REMARK  198  A    between atoms: _491  and  _494
REMARK  199  A    between atoms: _494  and  _495
REMARK  200  A    between atoms: _500  and  _502
REMARK  201  A    between atoms: _502  and  _503
REMARK  202  A    between atoms: _502  and  _505
REMARK  203  A    between atoms: _505  and  _506
REMARK  204  A    between atoms: _509  and  _511
REMARK  205  A    between atoms: _511  and  _512
REMARK  206  A    between atoms: _511  and  _514
REMARK  207  A    between atoms: _514  and  _515
REMARK                            x       y       z     vdW  Elec       q    Type
REMARK                         _______ _______ _______ _____ _____    ______ ____
ROOT
ATOM      1  O   HOH     1     -20.413   9.746 -32.273  0.00  0.00    +0.000 OA
ENDROOT
TORSDOF 0
REMARK  Name = ../refined-set-2016/3q71/3q71_pocket.pdb
REMARK  207 active torsions:
REMARK  status: ('A' for Active; 'I' for Inactive)
REMARK    1  A    between atoms: _1  and  _3
REMARK    2  A    between atoms: _3  and  _4
REMARK    3  A    between atoms: _3  and  _6
REMARK    4  A    between atoms: _9  and  _11
REMARK    5  A    between atoms: _11  and  _12
REMARK    6  A    between atoms: _11  and  _14
REMARK    7  A    between atoms: _14  and  _15
REMARK    8  A    between atoms: _15  and  _16
REMARK    9  A    between atoms: _16  and  _17
REMARK   10  A    between atoms: _17  and  _18
REMARK   11  A    between atoms: _22  and  _24
REMARK   12  A    between atoms: _24  and  _25
REMARK   13  A    between atoms: _24  and  _27
REMARK   14  A    between atoms: _27  and  _28
REMARK   15  A    between atoms: _28  and  _29
REMARK   16  A    between atoms: _32  and  _34
REMARK   17  A    between atoms: _34  and  _35
REMARK   18  A    between atoms: _37  and  _39
REMARK   19  A    between atoms: _39  and  _40
REMARK   20  A    between atoms: _39  and  _42
REMARK   21  A    between atoms: _45  and  _47
REMARK   22  A    between atoms: _47  and  _48
REMARK   23  A    between atoms: _47  and  _50
REMARK   24  A    between atoms: _50  and  _51
REMARK   25  A    between atoms: _51  and  _52
REMARK   26  A    between atoms: _57  and  _59
REMARK   27  A    between atoms: _59  and  _60
REMARK   28  A    between atoms: _59  and  _62
REMARK   29  A    between atoms: _62  and  _63
REMARK   30  A    between atoms: _68  and  _70
REMARK   31  A    between atoms: _70  and  _71
REMARK   32  A    between atoms: _74  and  _76
REMARK   33  A    between atoms: _76  and  _77
REMARK   34  A    between atoms: _76  and  _79
REMARK   35  A    between atoms: _79  and  _80
REMARK   36  A    between atoms: _85  and  _87
REMARK   37  A    between atoms: _87  and  _88
REMARK   38  A    between atoms: _87  and  _90
REMARK   39  A    between atoms: _90  and  _91
REMARK   40  A    between atoms: _93  and  _95
REMARK   41  A    between atoms: _95  and  _96
REMARK   42  A    between atoms: _95  and  _98
REMARK   43  A    between atoms: _102  and  _103
REMARK   44  A    between atoms: _108  and  _110
REMARK   45  A    between atoms: _110  and  _111
REMARK   46  A    between atoms: _110  and  _113
REMARK   47  A    between atoms: _113  and  _114
REMARK   48  A    between atoms: _117  and  _119
REMARK   49  A    between atoms: _119  and  _120
REMARK   50  A    between atoms: _119  and  _122
REMARK   51  A    between atoms: _122  and  _123
REMARK   52  A    between atoms: _126  and  _128
REMARK   53  A    between atoms: _128  and  _129
REMARK   54  A    between atoms: _128  and  _131
REMARK   55  A    between atoms: _131  and  _132
REMARK   56  A    between atoms: _135  and  _137
REMARK   57  A    between atoms: _137  and  _138
REMARK   58  A    between atoms: _137  and  _140
REMARK   59  A    between atoms: _143  and  _145
REMARK   60  A    between atoms: _145  and  _146
REMARK   61  A    between atoms: _145  and  _148
REMARK   62  A    between atoms: _148  and  _149
REMARK   63  A    between atoms: _152  and  _154
REMARK   64  A    between atoms: _154  and  _155
REMARK   65  A    between atoms: _154  and  _157
REMARK   66  A    between atoms: _157  and  _158
REMARK   67  A    between atoms: _160  and  _162
REMARK   68  A    between atoms: _162  and  _163
REMARK   69  A    between atoms: _162  and  _165
REMARK   70  A    between atoms: _165  and  _166
REMARK   71  A    between atoms: _166  and  _167
REMARK   72  A    between atoms: _167  and  _168
REMARK   73  A    between atoms: _177  and  _179
REMARK   74  A    between atoms: _179  and  _180
REMARK   75  A    between atoms: _183  and  _184
REMARK   76  A    between atoms: _189  and  _191
REMARK   77  A    between atoms: _191  and  _192
REMARK   78  A    between atoms: _191  and  _194
REMARK   79  A    between atoms: _194  and  _195
REMARK   80  A    between atoms: _198  and  _200
REMARK   81  A    between atoms: _200  and  _201
REMARK   82  A    between atoms: _200  and  _203
REMARK   83  A    between atoms: _203  and  _204
REMARK   84  A    between atoms: _206  and  _208
REMARK   85  A    between atoms: _208  and  _209
REMARK   86  A    between atoms: _208  and  _211
REMARK   87  A    between atoms: _211  and  _212
REMARK   88  A    between atoms: _212  and  _213
REMARK   89  A    between atoms: _213  and  _214
REMARK   90  A    between atoms: _214  and  _215
REMARK   91  A    between atoms: _219  and  _221
REMARK   92  A    between atoms: _221  and  _222
REMARK   93  A    between atoms: _221  and  _224
REMARK   94  A    between atoms: _224  and  _225
REMARK   95  A    between atoms: _227  and  _229
REMARK   96  A    between atoms: _229  and  _230
REMARK   97  A    between atoms: _229  and  _232
REMARK   98  A    between atoms: _232  and  _233
REMARK   99  A    between atoms: _236  and  _238
REMARK  100  A    between atoms: _238  and  _239
REMARK  101  A    between atoms: _238  and  _241
REMARK  102  A    between atoms: _244  and  _246
REMARK  103  A    between atoms: _246  and  _247
REMARK  104  A    between atoms: _246  and  _249
REMARK  105  A    between atoms: _252  and  _254
REMARK  106  A    between atoms: _254  and  _255
REMARK  107  A    between atoms: _259  and  _260
REMARK  108  A    between atoms: _265  and  _267
REMARK  109  A    between atoms: _267  and  _268
REMARK  110  A    between atoms: _267  and  _270
REMARK  111  A    between atoms: _270  and  _271
REMARK  112  A    between atoms: _271  and  _272
REMARK  113  A    between atoms: _275  and  _277
REMARK  114  A    between atoms: _277  and  _278
REMARK  115  A    between atoms: _277  and  _280
REMARK  116  A    between atoms: _280  and  _281
REMARK  117  A    between atoms: _291  and  _293
REMARK  118  A    between atoms: _293  and  _294
REMARK  119  A    between atoms: _293  and  _296
REMARK  120  A    between atoms: _296  and  _297
REMARK  121  A    between atoms: _297  and  _298
REMARK  122  A    between atoms: _300  and  _302
REMARK  123  A    between atoms: _302  and  _303
REMARK  124  A    between atoms: _302  and  _305
REMARK  125  A    between atoms: _305  and  _306
REMARK  126  A    between atoms: _313  and  _314
REMARK  127  A    between atoms: _319  and  _321
REMARK  128  A    between atoms: _321  and  _322
REMARK  129  A    between atoms: _325  and  _327
REMARK  130  A    between atoms: _327  and  _328
REMARK  131  A    between atoms: _327  and  _330
REMARK  132  A    between atoms: _330  and  _331
REMARK  133  A    between atoms: _334  and  _336
REMARK  134  A    between atoms: _336  and  _337
REMARK  135  A    between atoms: _339  and  _341
REMARK  136  A    between atoms: _341  and  _342
REMARK  137  A    between atoms: _341  and  _344
REMARK  138  A    between atoms: _344  and  _345
REMARK  139  A    between atoms: _348  and  _350
REMARK  140  A    between atoms: _350  and  _351
REMARK  141  A    between atoms: _353  and  _355
REMARK  142  A    between atoms: _355  and  _356
REMARK  143  A    between atoms: _355  and  _358
REMARK  144  A    between atoms: _358  and  _359
REMARK  145  A    between atoms: _364  and  _366
REMARK  146  A    between atoms: _366  and  _367
REMARK  147  A    between atoms: _366  and  _369
REMARK  148  A    between atoms: _369  and  _370
REMARK  149  A    between atoms: _373  and  _375
REMARK  150  A    between atoms: _375  and  _376
REMARK  151  A    between atoms: _378  and  _380
REMARK  152  A    between atoms: _380  and  _381
REMARK  153  A    between atoms: _380  and  _383
REMARK  154  A    between atoms: _383  and  _384
REMARK  155  A    between atoms: _390  and  _392
REMARK  156  A    between atoms: _392  and  _393
REMARK  157  A    between atoms: _392  and  _395
REMARK  158  A    between atoms: _395  and  _396
REMARK  159  A    between atoms: _396  and  _397
REMARK  160  A    between atoms: _397  and  _398
REMARK  161  A    between atoms: _398  and  _399
REMARK  162  A    between atoms: _403  and  _405
REMARK  163  A    between atoms: _405  and  _406
REMARK  164  A    between atoms: _405  and  _408
REMARK  165  A    between atoms: _408  and  _409
REMARK  166  A    between atoms: _415  and  _417
REMARK  167  A    between atoms: _417  and  _418
REMARK  168  A    between atoms: _417  and  _420
REMARK  169  A    between atoms: _420  and  _421
REMARK  170  A    between atoms: _424  and  _426
REMARK  171  A    between atoms: _426  and  _427
REMARK  172  A    between atoms: _426  and  _429
REMARK  173  A    between atoms: _429  and  _430
REMARK  174  A    between atoms: _433  and  _435
REMARK  175  A    between atoms: _435  and  _436
REMARK  176  A    between atoms: _435  and  _438
REMARK  177  A    between atoms: _438  and  _439
REMARK  178  A    between atoms: _445  and  _446
REMARK  179  A    between atoms: _451  and  _453
REMARK  180  A    between atoms: _453  and  _454
REMARK  181  A    between atoms: _453  and  _456
REMARK  182  A    between atoms: _456  and  _457
REMARK  183  A    between atoms: _459  and  _461
REMARK  184  A    between atoms: _461  and  _462
REMARK  185  A    between atoms: _461  and  _464
REMARK  186  A    between atoms: _464  and  _465
REMARK  187  A    between atoms: _468  and  _470
REMARK  188  A    between atoms: _470  and  _471
REMARK  189  A    between atoms: _470  and  _473
REMARK  190  A    between atoms: _473  and  _474
REMARK  191  A    between atoms: _479  and  _481
REMARK  192  A    between atoms: _481  and  _482
REMARK  193  A    between atoms: _481  and  _484
REMARK  194  A    between atoms: _484  and  _485
REMARK  195  A    between atoms: _485  and  _486
REMARK  196  A    between atoms: _489  and  _491
REMARK  197  A    between atoms: _491  and  _492
REMARK  198  A    between atoms: _491  and  _494
REMARK  199  A    between atoms: _494  and  _495
REMARK  200  A    between atoms: _500  and  _502
REMARK  201  A    between atoms: _502  and  _503
REMARK  202  A    between atoms: _502  and  _505
REMARK  203  A    between atoms: _505  and  _506
REMARK  204  A    between atoms: _509  and  _511
REMARK  205  A    between atoms: _511  and  _512
REMARK  206  A    between atoms: _511  and  _514
REMARK  207  A    between atoms: _514  and  _515
REMARK                            x       y       z     vdW  Elec       q    Type
REMARK                         _______ _______ _______ _____ _____    ______ ____
ROOT
ATOM      1  O   HOH     1     -23.238  16.270 -15.094  0.00  0.00    +0.000 OA
ENDROOT
TORSDOF 0
REMARK  Name = ../refined-set-2016/3q71/3q71_pocket.pdb
REMARK  207 active torsions:
REMARK  status: ('A' for Active; 'I' for Inactive)
REMARK    1  A    between atoms: _1  and  _3
REMARK    2  A    between atoms: _3  and  _4
REMARK    3  A    between atoms: _3  and  _6
REMARK    4  A    between atoms: _9  and  _11
REMARK    5  A    between atoms: _11  and  _12
REMARK    6  A    between atoms: _11  and  _14
REMARK    7  A    between atoms: _14  and  _15
REMARK    8  A    between atoms: _15  and  _16
REMARK    9  A    between atoms: _16  and  _17
REMARK   10  A    between atoms: _17  and  _18
REMARK   11  A    between atoms: _22  and  _24
REMARK   12  A    between atoms: _24  and  _25
REMARK   13  A    between atoms: _24  and  _27
REMARK   14  A    between atoms: _27  and  _28
REMARK   15  A    between atoms: _28  and  _29
REMARK   16  A    between atoms: _32  and  _34
REMARK   17  A    between atoms: _34  and  _35
REMARK   18  A    between atoms: _37  and  _39
REMARK   19  A    between atoms: _39  and  _40
REMARK   20  A    between atoms: _39  and  _42
REMARK   21  A    between atoms: _45  and  _47
REMARK   22  A    between atoms: _47  and  _48
REMARK   23  A    between atoms: _47  and  _50
REMARK   24  A    between atoms: _50  and  _51
REMARK   25  A    between atoms: _51  and  _52
REMARK   26  A    between atoms: _57  and  _59
REMARK   27  A    between atoms: _59  and  _60
REMARK   28  A    between atoms: _59  and  _62
REMARK   29  A    between atoms: _62  and  _63
REMARK   30  A    between atoms: _68  and  _70
REMARK   31  A    between atoms: _70  and  _71
REMARK   32  A    between atoms: _74  and  _76
REMARK   33  A    between atoms: _76  and  _77
REMARK   34  A    between atoms: _76  and  _79
REMARK   35  A    between atoms: _79  and  _80
REMARK   36  A    between atoms: _85  and  _87
REMARK   37  A    between atoms: _87  and  _88
REMARK   38  A    between atoms: _87  and  _90
REMARK   39  A    between atoms: _90  and  _91
REMARK   40  A    between atoms: _93  and  _95
REMARK   41  A    between atoms: _95  and  _96
REMARK   42  A    between atoms: _95  and  _98
REMARK   43  A    between atoms: _102  and  _103
REMARK   44  A    between atoms: _108  and  _110
REMARK   45  A    between atoms: _110  and  _111
REMARK   46  A    between atoms: _110  and  _113
REMARK   47  A    between atoms: _113  and  _114
REMARK   48  A    between atoms: _117  and  _119
REMARK   49  A    between atoms: _119  and  _120
REMARK   50  A    between atoms: _119  and  _122
REMARK   51  A    between atoms: _122  and  _123
REMARK   52  A    between atoms: _126  and  _128
REMARK   53  A    between atoms: _128  and  _129
REMARK   54  A    between atoms: _128  and  _131
REMARK   55  A    between atoms: _131  and  _132
REMARK   56  A    between atoms: _135  and  _137
REMARK   57  A    between atoms: _137  and  _138
REMARK   58  A    between atoms: _137  and  _140
REMARK   59  A    between atoms: _143  and  _145
REMARK   60  A    between atoms: _145  and  _146
REMARK   61  A    between atoms: _145  and  _148
REMARK   62  A    between atoms: _148  and  _149
REMARK   63  A    between atoms: _152  and  _154
REMARK   64  A    between atoms: _154  and  _155
REMARK   65  A    between atoms: _154  and  _157
REMARK   66  A    between atoms: _157  and  _158
REMARK   67  A    between atoms: _160  and  _162
REMARK   68  A    between atoms: _162  and  _163
REMARK   69  A    between atoms: _162  and  _165
REMARK   70  A    between atoms: _165  and  _166
REMARK   71  A    between atoms: _166  and  _167
REMARK   72  A    between atoms: _167  and  _168
REMARK   73  A    between atoms: _177  and  _179
REMARK   74  A    between atoms: _179  and  _180
REMARK   75  A    between atoms: _183  and  _184
REMARK   76  A    between atoms: _189  and  _191
REMARK   77  A    between atoms: _191  and  _192
REMARK   78  A    between atoms: _191  and  _194
REMARK   79  A    between atoms: _194  and  _195
REMARK   80  A    between atoms: _198  and  _200
REMARK   81  A    between atoms: _200  and  _201
REMARK   82  A    between atoms: _200  and  _203
REMARK   83  A    between atoms: _203  and  _204
REMARK   84  A    between atoms: _206  and  _208
REMARK   85  A    between atoms: _208  and  _209
REMARK   86  A    between atoms: _208  and  _211
REMARK   87  A    between atoms: _211  and  _212
REMARK   88  A    between atoms: _212  and  _213
REMARK   89  A    between atoms: _213  and  _214
REMARK   90  A    between atoms: _214  and  _215
REMARK   91  A    between atoms: _219  and  _221
REMARK   92  A    between atoms: _221  and  _222
REMARK   93  A    between atoms: _221  and  _224
REMARK   94  A    between atoms: _224  and  _225
REMARK   95  A    between atoms: _227  and  _229
REMARK   96  A    between atoms: _229  and  _230
REMARK   97  A    between atoms: _229  and  _232
REMARK   98  A    between atoms: _232  and  _233
REMARK   99  A    between atoms: _236  and  _238
REMARK  100  A    between atoms: _238  and  _239
REMARK  101  A    between atoms: _238  and  _241
REMARK  102  A    between atoms: _244  and  _246
REMARK  103  A    between atoms: _246  and  _247
REMARK  104  A    between atoms: _246  and  _249
REMARK  105  A    between atoms: _252  and  _254
REMARK  106  A    between atoms: _254  and  _255
REMARK  107  A    between atoms: _259  and  _260
REMARK  108  A    between atoms: _265  and  _267
REMARK  109  A    between atoms: _267  and  _268
REMARK  110  A    between atoms: _267  and  _270
REMARK  111  A    between atoms: _270  and  _271
REMARK  112  A    between atoms: _271  and  _272
REMARK  113  A    between atoms: _275  and  _277
REMARK  114  A    between atoms: _277  and  _278
REMARK  115  A    between atoms: _277  and  _280
REMARK  116  A    between atoms: _280  and  _281
REMARK  117  A    between atoms: _291  and  _293
REMARK  118  A    between atoms: _293  and  _294
REMARK  119  A    between atoms: _293  and  _296
REMARK  120  A    between atoms: _296  and  _297
REMARK  121  A    between atoms: _297  and  _298
REMARK  122  A    between atoms: _300  and  _302
REMARK  123  A    between atoms: _302  and  _303
REMARK  124  A    between atoms: _302  and  _305
REMARK  125  A    between atoms: _305  and  _306
REMARK  126  A    between atoms: _313  and  _314
REMARK  127  A    between atoms: _319  and  _321
REMARK  128  A    between atoms: _321  and  _322
REMARK  129  A    between atoms: _325  and  _327
REMARK  130  A    between atoms: _327  and  _328
REMARK  131  A    between atoms: _327  and  _330
REMARK  132  A    between atoms: _330  and  _331
REMARK  133  A    between atoms: _334  and  _336
REMARK  134  A    between atoms: _336  and  _337
REMARK  135  A    between atoms: _339  and  _341
REMARK  136  A    between atoms: _341  and  _342
REMARK  137  A    between atoms: _341  and  _344
REMARK  138  A    between atoms: _344  and  _345
REMARK  139  A    between atoms: _348  and  _350
REMARK  140  A    between atoms: _350  and  _351
REMARK  141  A    between atoms: _353  and  _355
REMARK  142  A    between atoms: _355  and  _356
REMARK  143  A    between atoms: _355  and  _358
REMARK  144  A    between atoms: _358  and  _359
REMARK  145  A    between atoms: _364  and  _366
REMARK  146  A    between atoms: _366  and  _367
REMARK  147  A    between atoms: _366  and  _369
REMARK  148  A    between atoms: _369  and  _370
REMARK  149  A    between atoms: _373  and  _375
REMARK  150  A    between atoms: _375  and  _376
REMARK  151  A    between atoms: _378  and  _380
REMARK  152  A    between atoms: _380  and  _381
REMARK  153  A    between atoms: _380  and  _383
REMARK  154  A    between atoms: _383  and  _384
REMARK  155  A    between atoms: _390  and  _392
REMARK  156  A    between atoms: _392  and  _393
REMARK  157  A    between atoms: _392  and  _395
REMARK  158  A    between atoms: _395  and  _396
REMARK  159  A    between atoms: _396  and  _397
REMARK  160  A    between atoms: _397  and  _398
REMARK  161  A    between atoms: _398  and  _399
REMARK  162  A    between atoms: _403  and  _405
REMARK  163  A    between atoms: _405  and  _406
REMARK  164  A    between atoms: _405  and  _408
REMARK  165  A    between atoms: _408  and  _409
REMARK  166  A    between atoms: _415  and  _417
REMARK  167  A    between atoms: _417  and  _418
REMARK  168  A    between atoms: _417  and  _420
REMARK  169  A    between atoms: _420  and  _421
REMARK  170  A    between atoms: _424  and  _426
REMARK  171  A    between atoms: _426  and  _427
REMARK  172  A    between atoms: _426  and  _429
REMARK  173  A    between atoms: _429  and  _430
REMARK  174  A    between atoms: _433  and  _435
REMARK  175  A    between atoms: _435  and  _436
REMARK  176  A    between atoms: _435  and  _438
REMARK  177  A    between atoms: _438  and  _439
REMARK  178  A    between atoms: _445  and  _446
REMARK  179  A    between atoms: _451  and  _453
REMARK  180  A    between atoms: _453  and  _454
REMARK  181  A    between atoms: _453  and  _456
REMARK  182  A    between atoms: _456  and  _457
REMARK  183  A    between atoms: _459  and  _461
REMARK  184  A    between atoms: _461  and  _462
REMARK  185  A    between atoms: _461  and  _464
REMARK  186  A    between atoms: _464  and  _465
REMARK  187  A    between atoms: _468  and  _470
REMARK  188  A    between atoms: _470  and  _471
REMARK  189  A    between atoms: _470  and  _473
REMARK  190  A    between atoms: _473  and  _474
REMARK  191  A    between atoms: _479  and  _481
REMARK  192  A    between atoms: _481  and  _482
REMARK  193  A    between atoms: _481  and  _484
REMARK  194  A    between atoms: _484  and  _485
REMARK  195  A    between atoms: _485  and  _486
REMARK  196  A    between atoms: _489  and  _491
REMARK  197  A    between atoms: _491  and  _492
REMARK  198  A    between atoms: _491  and  _494
REMARK  199  A    between atoms: _494  and  _495
REMARK  200  A    between atoms: _500  and  _502
REMARK  201  A    between atoms: _502  and  _503
REMARK  202  A    between atoms: _502  and  _505
REMARK  203  A    between atoms: _505  and  _506
REMARK  204  A    between atoms: _509  and  _511
REMARK  205  A    between atoms: _511  and  _512
REMARK  206  A    between atoms: _511  and  _514
REMARK  207  A    between atoms: _514  and  _515
REMARK                            x       y       z     vdW  Elec       q    Type
REMARK                         _______ _______ _______ _____ _____    ______ ____
ROOT
ATOM      1  O   HOH     1     -30.248  21.637 -25.044  0.00  0.00    +0.000 OA
ENDROOT
TORSDOF 0
REMARK  Name = ../refined-set-2016/3q71/3q71_pocket.pdb
REMARK  207 active torsions:
REMARK  status: ('A' for Active; 'I' for Inactive)
REMARK    1  A    between atoms: _1  and  _3
REMARK    2  A    between atoms: _3  and  _4
REMARK    3  A    between atoms: _3  and  _6
REMARK    4  A    between atoms: _9  and  _11
REMARK    5  A    between atoms: _11  and  _12
REMARK    6  A    between atoms: _11  and  _14
REMARK    7  A    between atoms: _14  and  _15
REMARK    8  A    between atoms: _15  and  _16
REMARK    9  A    between atoms: _16  and  _17
REMARK   10  A    between atoms: _17  and  _18
REMARK   11  A    between atoms: _22  and  _24
REMARK   12  A    between atoms: _24  and  _25
REMARK   13  A    between atoms: _24  and  _27
REMARK   14  A    between atoms: _27  and  _28
REMARK   15  A    between atoms: _28  and  _29
REMARK   16  A    between atoms: _32  and  _34
REMARK   17  A    between atoms: _34  and  _35
REMARK   18  A    between atoms: _37  and  _39
REMARK   19  A    between atoms: _39  and  _40
REMARK   20  A    between atoms: _39  and  _42
REMARK   21  A    between atoms: _45  and  _47
REMARK   22  A    between atoms: _47  and  _48
REMARK   23  A    between atoms: _47  and  _50
REMARK   24  A    between atoms: _50  and  _51
REMARK   25  A    between atoms: _51  and  _52
REMARK   26  A    between atoms: _57  and  _59
REMARK   27  A    between atoms: _59  and  _60
REMARK   28  A    between atoms: _59  and  _62
REMARK   29  A    between atoms: _62  and  _63
REMARK   30  A    between atoms: _68  and  _70
REMARK   31  A    between atoms: _70  and  _71
REMARK   32  A    between atoms: _74  and  _76
REMARK   33  A    between atoms: _76  and  _77
REMARK   34  A    between atoms: _76  and  _79
REMARK   35  A    between atoms: _79  and  _80
REMARK   36  A    between atoms: _85  and  _87
REMARK   37  A    between atoms: _87  and  _88
REMARK   38  A    between atoms: _87  and  _90
REMARK   39  A    between atoms: _90  and  _91
REMARK   40  A    between atoms: _93  and  _95
REMARK   41  A    between atoms: _95  and  _96
REMARK   42  A    between atoms: _95  and  _98
REMARK   43  A    between atoms: _102  and  _103
REMARK   44  A    between atoms: _108  and  _110
REMARK   45  A    between atoms: _110  and  _111
REMARK   46  A    between atoms: _110  and  _113
REMARK   47  A    between atoms: _113  and  _114
REMARK   48  A    between atoms: _117  and  _119
REMARK   49  A    between atoms: _119  and  _120
REMARK   50  A    between atoms: _119  and  _122
REMARK   51  A    between atoms: _122  and  _123
REMARK   52  A    between atoms: _126  and  _128
REMARK   53  A    between atoms: _128  and  _129
REMARK   54  A    between atoms: _128  and  _131
REMARK   55  A    between atoms: _131  and  _132
REMARK   56  A    between atoms: _135  and  _137
REMARK   57  A    between atoms: _137  and  _138
REMARK   58  A    between atoms: _137  and  _140
REMARK   59  A    between atoms: _143  and  _145
REMARK   60  A    between atoms: _145  and  _146
REMARK   61  A    between atoms: _145  and  _148
REMARK   62  A    between atoms: _148  and  _149
REMARK   63  A    between atoms: _152  and  _154
REMARK   64  A    between atoms: _154  and  _155
REMARK   65  A    between atoms: _154  and  _157
REMARK   66  A    between atoms: _157  and  _158
REMARK   67  A    between atoms: _160  and  _162
REMARK   68  A    between atoms: _162  and  _163
REMARK   69  A    between atoms: _162  and  _165
REMARK   70  A    between atoms: _165  and  _166
REMARK   71  A    between atoms: _166  and  _167
REMARK   72  A    between atoms: _167  and  _168
REMARK   73  A    between atoms: _177  and  _179
REMARK   74  A    between atoms: _179  and  _180
REMARK   75  A    between atoms: _183  and  _184
REMARK   76  A    between atoms: _189  and  _191
REMARK   77  A    between atoms: _191  and  _192
REMARK   78  A    between atoms: _191  and  _194
REMARK   79  A    between atoms: _194  and  _195
REMARK   80  A    between atoms: _198  and  _200
REMARK   81  A    between atoms: _200  and  _201
REMARK   82  A    between atoms: _200  and  _203
REMARK   83  A    between atoms: _203  and  _204
REMARK   84  A    between atoms: _206  and  _208
REMARK   85  A    between atoms: _208  and  _209
REMARK   86  A    between atoms: _208  and  _211
REMARK   87  A    between atoms: _211  and  _212
REMARK   88  A    between atoms: _212  and  _213
REMARK   89  A    between atoms: _213  and  _214
REMARK   90  A    between atoms: _214  and  _215
REMARK   91  A    between atoms: _219  and  _221
REMARK   92  A    between atoms: _221  and  _222
REMARK   93  A    between atoms: _221  and  _224
REMARK   94  A    between atoms: _224  and  _225
REMARK   95  A    between atoms: _227  and  _229
REMARK   96  A    between atoms: _229  and  _230
REMARK   97  A    between atoms: _229  and  _232
REMARK   98  A    between atoms: _232  and  _233
REMARK   99  A    between atoms: _236  and  _238
REMARK  100  A    between atoms: _238  and  _239
REMARK  101  A    between atoms: _238  and  _241
REMARK  102  A    between atoms: _244  and  _246
REMARK  103  A    between atoms: _246  and  _247
REMARK  104  A    between atoms: _246  and  _249
REMARK  105  A    between atoms: _252  and  _254
REMARK  106  A    between atoms: _254  and  _255
REMARK  107  A    between atoms: _259  and  _260
REMARK  108  A    between atoms: _265  and  _267
REMARK  109  A    between atoms: _267  and  _268
REMARK  110  A    between atoms: _267  and  _270
REMARK  111  A    between atoms: _270  and  _271
REMARK  112  A    between atoms: _271  and  _272
REMARK  113  A    between atoms: _275  and  _277
REMARK  114  A    between atoms: _277  and  _278
REMARK  115  A    between atoms: _277  and  _280
REMARK  116  A    between atoms: _280  and  _281
REMARK  117  A    between atoms: _291  and  _293
REMARK  118  A    between atoms: _293  and  _294
REMARK  119  A    between atoms: _293  and  _296
REMARK  120  A    between atoms: _296  and  _297
REMARK  121  A    between atoms: _297  and  _298
REMARK  122  A    between atoms: _300  and  _302
REMARK  123  A    between atoms: _302  and  _303
REMARK  124  A    between atoms: _302  and  _305
REMARK  125  A    between atoms: _305  and  _306
REMARK  126  A    between atoms: _313  and  _314
REMARK  127  A    between atoms: _319  and  _321
REMARK  128  A    between atoms: _321  and  _322
REMARK  129  A    between atoms: _325  and  _327
REMARK  130  A    between atoms: _327  and  _328
REMARK  131  A    between atoms: _327  and  _330
REMARK  132  A    between atoms: _330  and  _331
REMARK  133  A    between atoms: _334  and  _336
REMARK  134  A    between atoms: _336  and  _337
REMARK  135  A    between atoms: _339  and  _341
REMARK  136  A    between atoms: _341  and  _342
REMARK  137  A    between atoms: _341  and  _344
REMARK  138  A    between atoms: _344  and  _345
REMARK  139  A    between atoms: _348  and  _350
REMARK  140  A    between atoms: _350  and  _351
REMARK  141  A    between atoms: _353  and  _355
REMARK  142  A    between atoms: _355  and  _356
REMARK  143  A    between atoms: _355  and  _358
REMARK  144  A    between atoms: _358  and  _359
REMARK  145  A    between atoms: _364  and  _366
REMARK  146  A    between atoms: _366  and  _367
REMARK  147  A    between atoms: _366  and  _369
REMARK  148  A    between atoms: _369  and  _370
REMARK  149  A    between atoms: _373  and  _375
REMARK  150  A    between atoms: _375  and  _376
REMARK  151  A    between atoms: _378  and  _380
REMARK  152  A    between atoms: _380  and  _381
REMARK  153  A    between atoms: _380  and  _383
REMARK  154  A    between atoms: _383  and  _384
REMARK  155  A    between atoms: _390  and  _392
REMARK  156  A    between atoms: _392  and  _393
REMARK  157  A    between atoms: _392  and  _395
REMARK  158  A    between atoms: _395  and  _396
REMARK  159  A    between atoms: _396  and  _397
REMARK  160  A    between atoms: _397  and  _398
REMARK  161  A    between atoms: _398  and  _399
REMARK  162  A    between atoms: _403  and  _405
REMARK  163  A    between atoms: _405  and  _406
REMARK  164  A    between atoms: _405  and  _408
REMARK  165  A    between atoms: _408  and  _409
REMARK  166  A    between atoms: _415  and  _417
REMARK  167  A    between atoms: _417  and  _418
REMARK  168  A    between atoms: _417  and  _420
REMARK  169  A    between atoms: _420  and  _421
REMARK  170  A    between atoms: _424  and  _426
REMARK  171  A    between atoms: _426  and  _427
REMARK  172  A    between atoms: _426  and  _429
REMARK  173  A    between atoms: _429  and  _430
REMARK  174  A    between atoms: _433  and  _435
REMARK  175  A    between atoms: _435  and  _436
REMARK  176  A    between atoms: _435  and  _438
REMARK  177  A    between atoms: _438  and  _439
REMARK  178  A    between atoms: _445  and  _446
REMARK  179  A    between atoms: _451  and  _453
REMARK  180  A    between atoms: _453  and  _454
REMARK  181  A    between atoms: _453  and  _456
REMARK  182  A    between atoms: _456  and  _457
REMARK  183  A    between atoms: _459  and  _461
REMARK  184  A    between atoms: _461  and  _462
REMARK  185  A    between atoms: _461  and  _464
REMARK  186  A    between atoms: _464  and  _465
REMARK  187  A    between atoms: _468  and  _470
REMARK  188  A    between atoms: _470  and  _471
REMARK  189  A    between atoms: _470  and  _473
REMARK  190  A    between atoms: _473  and  _474
REMARK  191  A    between atoms: _479  and  _481
REMARK  192  A    between atoms: _481  and  _482
REMARK  193  A    between atoms: _481  and  _484
REMARK  194  A    between atoms: _484  and  _485
REMARK  195  A    between atoms: _485  and  _486
REMARK  196  A    between atoms: _489  and  _491
REMARK  197  A    between atoms: _491  and  _492
REMARK  198  A    between atoms: _491  and  _494
REMARK  199  A    between atoms: _494  and  _495
REMARK  200  A    between atoms: _500  and  _502
REMARK  201  A    between atoms: _502  and  _503
REMARK  202  A    between atoms: _502  and  _505
REMARK  203  A    between atoms: _505  and  _506
REMARK  204  A    between atoms: _509  and  _511
REMARK  205  A    between atoms: _511  and  _512
REMARK  206  A    between atoms: _511  and  _514
REMARK  207  A    between atoms: _514  and  _515
REMARK                            x       y       z     vdW  Elec       q    Type
REMARK                         _______ _______ _______ _____ _____    ______ ____
ROOT
ATOM      1  O   HOH     1     -19.270   8.236 -15.930  0.00  0.00    +0.000 OA
ENDROOT
TORSDOF 0
REMARK  Name = ../refined-set-2016/3q71/3q71_pocket.pdb
REMARK  207 active torsions:
REMARK  status: ('A' for Active; 'I' for Inactive)
REMARK    1  A    between atoms: _1  and  _3
REMARK    2  A    between atoms: _3  and  _4
REMARK    3  A    between atoms: _3  and  _6
REMARK    4  A    between atoms: _9  and  _11
REMARK    5  A    between atoms: _11  and  _12
REMARK    6  A    between atoms: _11  and  _14
REMARK    7  A    between atoms: _14  and  _15
REMARK    8  A    between atoms: _15  and  _16
REMARK    9  A    between atoms: _16  and  _17
REMARK   10  A    between atoms: _17  and  _18
REMARK   11  A    between atoms: _22  and  _24
REMARK   12  A    between atoms: _24  and  _25
REMARK   13  A    between atoms: _24  and  _27
REMARK   14  A    between atoms: _27  and  _28
REMARK   15  A    between atoms: _28  and  _29
REMARK   16  A    between atoms: _32  and  _34
REMARK   17  A    between atoms: _34  and  _35
REMARK   18  A    between atoms: _37  and  _39
REMARK   19  A    between atoms: _39  and  _40
REMARK   20  A    between atoms: _39  and  _42
REMARK   21  A    between atoms: _45  and  _47
REMARK   22  A    between atoms: _47  and  _48
REMARK   23  A    between atoms: _47  and  _50
REMARK   24  A    between atoms: _50  and  _51
REMARK   25  A    between atoms: _51  and  _52
REMARK   26  A    between atoms: _57  and  _59
REMARK   27  A    between atoms: _59  and  _60
REMARK   28  A    between atoms: _59  and  _62
REMARK   29  A    between atoms: _62  and  _63
REMARK   30  A    between atoms: _68  and  _70
REMARK   31  A    between atoms: _70  and  _71
REMARK   32  A    between atoms: _74  and  _76
REMARK   33  A    between atoms: _76  and  _77
REMARK   34  A    between atoms: _76  and  _79
REMARK   35  A    between atoms: _79  and  _80
REMARK   36  A    between atoms: _85  and  _87
REMARK   37  A    between atoms: _87  and  _88
REMARK   38  A    between atoms: _87  and  _90
REMARK   39  A    between atoms: _90  and  _91
REMARK   40  A    between atoms: _93  and  _95
REMARK   41  A    between atoms: _95  and  _96
REMARK   42  A    between atoms: _95  and  _98
REMARK   43  A    between atoms: _102  and  _103
REMARK   44  A    between atoms: _108  and  _110
REMARK   45  A    between atoms: _110  and  _111
REMARK   46  A    between atoms: _110  and  _113
REMARK   47  A    between atoms: _113  and  _114
REMARK   48  A    between atoms: _117  and  _119
REMARK   49  A    between atoms: _119  and  _120
REMARK   50  A    between atoms: _119  and  _122
REMARK   51  A    between atoms: _122  and  _123
REMARK   52  A    between atoms: _126  and  _128
REMARK   53  A    between atoms: _128  and  _129
REMARK   54  A    between atoms: _128  and  _131
REMARK   55  A    between atoms: _131  and  _132
REMARK   56  A    between atoms: _135  and  _137
REMARK   57  A    between atoms: _137  and  _138
REMARK   58  A    between atoms: _137  and  _140
REMARK   59  A    between atoms: _143  and  _145
REMARK   60  A    between atoms: _145  and  _146
REMARK   61  A    between atoms: _145  and  _148
REMARK   62  A    between atoms: _148  and  _149
REMARK   63  A    between atoms: _152  and  _154
REMARK   64  A    between atoms: _154  and  _155
REMARK   65  A    between atoms: _154  and  _157
REMARK   66  A    between atoms: _157  and  _158
REMARK   67  A    between atoms: _160  and  _162
REMARK   68  A    between atoms: _162  and  _163
REMARK   69  A    between atoms: _162  and  _165
REMARK   70  A    between atoms: _165  and  _166
REMARK   71  A    between atoms: _166  and  _167
REMARK   72  A    between atoms: _167  and  _168
REMARK   73  A    between atoms: _177  and  _179
REMARK   74  A    between atoms: _179  and  _180
REMARK   75  A    between atoms: _183  and  _184
REMARK   76  A    between atoms: _189  and  _191
REMARK   77  A    between atoms: _191  and  _192
REMARK   78  A    between atoms: _191  and  _194
REMARK   79  A    between atoms: _194  and  _195
REMARK   80  A    between atoms: _198  and  _200
REMARK   81  A    between atoms: _200  and  _201
REMARK   82  A    between atoms: _200  and  _203
REMARK   83  A    between atoms: _203  and  _204
REMARK   84  A    between atoms: _206  and  _208
REMARK   85  A    between atoms: _208  and  _209
REMARK   86  A    between atoms: _208  and  _211
REMARK   87  A    between atoms: _211  and  _212
REMARK   88  A    between atoms: _212  and  _213
REMARK   89  A    between atoms: _213  and  _214
REMARK   90  A    between atoms: _214  and  _215
REMARK   91  A    between atoms: _219  and  _221
REMARK   92  A    between atoms: _221  and  _222
REMARK   93  A    between atoms: _221  and  _224
REMARK   94  A    between atoms: _224  and  _225
REMARK   95  A    between atoms: _227  and  _229
REMARK   96  A    between atoms: _229  and  _230
REMARK   97  A    between atoms: _229  and  _232
REMARK   98  A    between atoms: _232  and  _233
REMARK   99  A    between atoms: _236  and  _238
REMARK  100  A    between atoms: _238  and  _239
REMARK  101  A    between atoms: _238  and  _241
REMARK  102  A    between atoms: _244  and  _246
REMARK  103  A    between atoms: _246  and  _247
REMARK  104  A    between atoms: _246  and  _249
REMARK  105  A    between atoms: _252  and  _254
REMARK  106  A    between atoms: _254  and  _255
REMARK  107  A    between atoms: _259  and  _260
REMARK  108  A    between atoms: _265  and  _267
REMARK  109  A    between atoms: _267  and  _268
REMARK  110  A    between atoms: _267  and  _270
REMARK  111  A    between atoms: _270  and  _271
REMARK  112  A    between atoms: _271  and  _272
REMARK  113  A    between atoms: _275  and  _277
REMARK  114  A    between atoms: _277  and  _278
REMARK  115  A    between atoms: _277  and  _280
REMARK  116  A    between atoms: _280  and  _281
REMARK  117  A    between atoms: _291  and  _293
REMARK  118  A    between atoms: _293  and  _294
REMARK  119  A    between atoms: _293  and  _296
REMARK  120  A    between atoms: _296  and  _297
REMARK  121  A    between atoms: _297  and  _298
REMARK  122  A    between atoms: _300  and  _302
REMARK  123  A    between atoms: _302  and  _303
REMARK  124  A    between atoms: _302  and  _305
REMARK  125  A    between atoms: _305  and  _306
REMARK  126  A    between atoms: _313  and  _314
REMARK  127  A    between atoms: _319  and  _321
REMARK  128  A    between atoms: _321  and  _322
REMARK  129  A    between atoms: _325  and  _327
REMARK  130  A    between atoms: _327  and  _328
REMARK  131  A    between atoms: _327  and  _330
REMARK  132  A    between atoms: _330  and  _331
REMARK  133  A    between atoms: _334  and  _336
REMARK  134  A    between atoms: _336  and  _337
REMARK  135  A    between atoms: _339  and  _341
REMARK  136  A    between atoms: _341  and  _342
REMARK  137  A    between atoms: _341  and  _344
REMARK  138  A    between atoms: _344  and  _345
REMARK  139  A    between atoms: _348  and  _350
REMARK  140  A    between atoms: _350  and  _351
REMARK  141  A    between atoms: _353  and  _355
REMARK  142  A    between atoms: _355  and  _356
REMARK  143  A    between atoms: _355  and  _358
REMARK  144  A    between atoms: _358  and  _359
REMARK  145  A    between atoms: _364  and  _366
REMARK  146  A    between atoms: _366  and  _367
REMARK  147  A    between atoms: _366  and  _369
REMARK  148  A    between atoms: _369  and  _370
REMARK  149  A    between atoms: _373  and  _375
REMARK  150  A    between atoms: _375  and  _376
REMARK  151  A    between atoms: _378  and  _380
REMARK  152  A    between atoms: _380  and  _381
REMARK  153  A    between atoms: _380  and  _383
REMARK  154  A    between atoms: _383  and  _384
REMARK  155  A    between atoms: _390  and  _392
REMARK  156  A    between atoms: _392  and  _393
REMARK  157  A    between atoms: _392  and  _395
REMARK  158  A    between atoms: _395  and  _396
REMARK  159  A    between atoms: _396  and  _397
REMARK  160  A    between atoms: _397  and  _398
REMARK  161  A    between atoms: _398  and  _399
REMARK  162  A    between atoms: _403  and  _405
REMARK  163  A    between atoms: _405  and  _406
REMARK  164  A    between atoms: _405  and  _408
REMARK  165  A    between atoms: _408  and  _409
REMARK  166  A    between atoms: _415  and  _417
REMARK  167  A    between atoms: _417  and  _418
REMARK  168  A    between atoms: _417  and  _420
REMARK  169  A    between atoms: _420  and  _421
REMARK  170  A    between atoms: _424  and  _426
REMARK  171  A    between atoms: _426  and  _427
REMARK  172  A    between atoms: _426  and  _429
REMARK  173  A    between atoms: _429  and  _430
REMARK  174  A    between atoms: _433  and  _435
REMARK  175  A    between atoms: _435  and  _436
REMARK  176  A    between atoms: _435  and  _438
REMARK  177  A    between atoms: _438  and  _439
REMARK  178  A    between atoms: _445  and  _446
REMARK  179  A    between atoms: _451  and  _453
REMARK  180  A    between atoms: _453  and  _454
REMARK  181  A    between atoms: _453  and  _456
REMARK  182  A    between atoms: _456  and  _457
REMARK  183  A    between atoms: _459  and  _461
REMARK  184  A    between atoms: _461  and  _462
REMARK  185  A    between atoms: _461  and  _464
REMARK  186  A    between atoms: _464  and  _465
REMARK  187  A    between atoms: _468  and  _470
REMARK  188  A    between atoms: _470  and  _471
REMARK  189  A    between atoms: _470  and  _473
REMARK  190  A    between atoms: _473  and  _474
REMARK  191  A    between atoms: _479  and  _481
REMARK  192  A    between atoms: _481  and  _482
REMARK  193  A    between atoms: _481  and  _484
REMARK  194  A    between atoms: _484  and  _485
REMARK  195  A    between atoms: _485  and  _486
REMARK  196  A    between atoms: _489  and  _491
REMARK  197  A    between atoms: _491  and  _492
REMARK  198  A    between atoms: _491  and  _494
REMARK  199  A    between atoms: _494  and  _495
REMARK  200  A    between atoms: _500  and  _502
REMARK  201  A    between atoms: _502  and  _503
REMARK  202  A    between atoms: _502  and  _505
REMARK  203  A    between atoms: _505  and  _506
REMARK  204  A    between atoms: _509  and  _511
REMARK  205  A    between atoms: _511  and  _512
REMARK  206  A    between atoms: _511  and  _514
REMARK  207  A    between atoms: _514  and  _515
REMARK                            x       y       z     vdW  Elec       q    Type
REMARK                         _______ _______ _______ _____ _____    ______ ____
ROOT
ATOM      1  O   HOH     1     -20.814   8.886 -22.088  0.00  0.00    +0.000 OA
ENDROOT
TORSDOF 0
REMARK  Name = ../refined-set-2016/3q71/3q71_pocket.pdb
REMARK  207 active torsions:
REMARK  status: ('A' for Active; 'I' for Inactive)
REMARK    1  A    between atoms: _1  and  _3
REMARK    2  A    between atoms: _3  and  _4
REMARK    3  A    between atoms: _3  and  _6
REMARK    4  A    between atoms: _9  and  _11
REMARK    5  A    between atoms: _11  and  _12
REMARK    6  A    between atoms: _11  and  _14
REMARK    7  A    between atoms: _14  and  _15
REMARK    8  A    between atoms: _15  and  _16
REMARK    9  A    between atoms: _16  and  _17
REMARK   10  A    between atoms: _17  and  _18
REMARK   11  A    between atoms: _22  and  _24
REMARK   12  A    between atoms: _24  and  _25
REMARK   13  A    between atoms: _24  and  _27
REMARK   14  A    between atoms: _27  and  _28
REMARK   15  A    between atoms: _28  and  _29
REMARK   16  A    between atoms: _32  and  _34
REMARK   17  A    between atoms: _34  and  _35
REMARK   18  A    between atoms: _37  and  _39
REMARK   19  A    between atoms: _39  and  _40
REMARK   20  A    between atoms: _39  and  _42
REMARK   21  A    between atoms: _45  and  _47
REMARK   22  A    between atoms: _47  and  _48
REMARK   23  A    between atoms: _47  and  _50
REMARK   24  A    between atoms: _50  and  _51
REMARK   25  A    between atoms: _51  and  _52
REMARK   26  A    between atoms: _57  and  _59
REMARK   27  A    between atoms: _59  and  _60
REMARK   28  A    between atoms: _59  and  _62
REMARK   29  A    between atoms: _62  and  _63
REMARK   30  A    between atoms: _68  and  _70
REMARK   31  A    between atoms: _70  and  _71
REMARK   32  A    between atoms: _74  and  _76
REMARK   33  A    between atoms: _76  and  _77
REMARK   34  A    between atoms: _76  and  _79
REMARK   35  A    between atoms: _79  and  _80
REMARK   36  A    between atoms: _85  and  _87
REMARK   37  A    between atoms: _87  and  _88
REMARK   38  A    between atoms: _87  and  _90
REMARK   39  A    between atoms: _90  and  _91
REMARK   40  A    between atoms: _93  and  _95
REMARK   41  A    between atoms: _95  and  _96
REMARK   42  A    between atoms: _95  and  _98
REMARK   43  A    between atoms: _102  and  _103
REMARK   44  A    between atoms: _108  and  _110
REMARK   45  A    between atoms: _110  and  _111
REMARK   46  A    between atoms: _110  and  _113
REMARK   47  A    between atoms: _113  and  _114
REMARK   48  A    between atoms: _117  and  _119
REMARK   49  A    between atoms: _119  and  _120
REMARK   50  A    between atoms: _119  and  _122
REMARK   51  A    between atoms: _122  and  _123
REMARK   52  A    between atoms: _126  and  _128
REMARK   53  A    between atoms: _128  and  _129
REMARK   54  A    between atoms: _128  and  _131
REMARK   55  A    between atoms: _131  and  _132
REMARK   56  A    between atoms: _135  and  _137
REMARK   57  A    between atoms: _137  and  _138
REMARK   58  A    between atoms: _137  and  _140
REMARK   59  A    between atoms: _143  and  _145
REMARK   60  A    between atoms: _145  and  _146
REMARK   61  A    between atoms: _145  and  _148
REMARK   62  A    between atoms: _148  and  _149
REMARK   63  A    between atoms: _152  and  _154
REMARK   64  A    between atoms: _154  and  _155
REMARK   65  A    between atoms: _154  and  _157
REMARK   66  A    between atoms: _157  and  _158
REMARK   67  A    between atoms: _160  and  _162
REMARK   68  A    between atoms: _162  and  _163
REMARK   69  A    between atoms: _162  and  _165
REMARK   70  A    between atoms: _165  and  _166
REMARK   71  A    between atoms: _166  and  _167
REMARK   72  A    between atoms: _167  and  _168
REMARK   73  A    between atoms: _177  and  _179
REMARK   74  A    between atoms: _179  and  _180
REMARK   75  A    between atoms: _183  and  _184
REMARK   76  A    between atoms: _189  and  _191
REMARK   77  A    between atoms: _191  and  _192
REMARK   78  A    between atoms: _191  and  _194
REMARK   79  A    between atoms: _194  and  _195
REMARK   80  A    between atoms: _198  and  _200
REMARK   81  A    between atoms: _200  and  _201
REMARK   82  A    between atoms: _200  and  _203
REMARK   83  A    between atoms: _203  and  _204
REMARK   84  A    between atoms: _206  and  _208
REMARK   85  A    between atoms: _208  and  _209
REMARK   86  A    between atoms: _208  and  _211
REMARK   87  A    between atoms: _211  and  _212
REMARK   88  A    between atoms: _212  and  _213
REMARK   89  A    between atoms: _213  and  _214
REMARK   90  A    between atoms: _214  and  _215
REMARK   91  A    between atoms: _219  and  _221
REMARK   92  A    between atoms: _221  and  _222
REMARK   93  A    between atoms: _221  and  _224
REMARK   94  A    between atoms: _224  and  _225
REMARK   95  A    between atoms: _227  and  _229
REMARK   96  A    between atoms: _229  and  _230
REMARK   97  A    between atoms: _229  and  _232
REMARK   98  A    between atoms: _232  and  _233
REMARK   99  A    between atoms: _236  and  _238
REMARK  100  A    between atoms: _238  and  _239
REMARK  101  A    between atoms: _238  and  _241
REMARK  102  A    between atoms: _244  and  _246
REMARK  103  A    between atoms: _246  and  _247
REMARK  104  A    between atoms: _246  and  _249
REMARK  105  A    between atoms: _252  and  _254
REMARK  106  A    between atoms: _254  and  _255
REMARK  107  A    between atoms: _259  and  _260
REMARK  108  A    between atoms: _265  and  _267
REMARK  109  A    between atoms: _267  and  _268
REMARK  110  A    between atoms: _267  and  _270
REMARK  111  A    between atoms: _270  and  _271
REMARK  112  A    between atoms: _271  and  _272
REMARK  113  A    between atoms: _275  and  _277
REMARK  114  A    between atoms: _277  and  _278
REMARK  115  A    between atoms: _277  and  _280
REMARK  116  A    between atoms: _280  and  _281
REMARK  117  A    between atoms: _291  and  _293
REMARK  118  A    between atoms: _293  and  _294
REMARK  119  A    between atoms: _293  and  _296
REMARK  120  A    between atoms: _296  and  _297
REMARK  121  A    between atoms: _297  and  _298
REMARK  122  A    between atoms: _300  and  _302
REMARK  123  A    between atoms: _302  and  _303
REMARK  124  A    between atoms: _302  and  _305
REMARK  125  A    between atoms: _305  and  _306
REMARK  126  A    between atoms: _313  and  _314
REMARK  127  A    between atoms: _319  and  _321
REMARK  128  A    between atoms: _321  and  _322
REMARK  129  A    between atoms: _325  and  _327
REMARK  130  A    between atoms: _327  and  _328
REMARK  131  A    between atoms: _327  and  _330
REMARK  132  A    between atoms: _330  and  _331
REMARK  133  A    between atoms: _334  and  _336
REMARK  134  A    between atoms: _336  and  _337
REMARK  135  A    between atoms: _339  and  _341
REMARK  136  A    between atoms: _341  and  _342
REMARK  137  A    between atoms: _341  and  _344
REMARK  138  A    between atoms: _344  and  _345
REMARK  139  A    between atoms: _348  and  _350
REMARK  140  A    between atoms: _350  and  _351
REMARK  141  A    between atoms: _353  and  _355
REMARK  142  A    between atoms: _355  and  _356
REMARK  143  A    between atoms: _355  and  _358
REMARK  144  A    between atoms: _358  and  _359
REMARK  145  A    between atoms: _364  and  _366
REMARK  146  A    between atoms: _366  and  _367
REMARK  147  A    between atoms: _366  and  _369
REMARK  148  A    between atoms: _369  and  _370
REMARK  149  A    between atoms: _373  and  _375
REMARK  150  A    between atoms: _375  and  _376
REMARK  151  A    between atoms: _378  and  _380
REMARK  152  A    between atoms: _380  and  _381
REMARK  153  A    between atoms: _380  and  _383
REMARK  154  A    between atoms: _383  and  _384
REMARK  155  A    between atoms: _390  and  _392
REMARK  156  A    between atoms: _392  and  _393
REMARK  157  A    between atoms: _392  and  _395
REMARK  158  A    between atoms: _395  and  _396
REMARK  159  A    between atoms: _396  and  _397
REMARK  160  A    between atoms: _397  and  _398
REMARK  161  A    between atoms: _398  and  _399
REMARK  162  A    between atoms: _403  and  _405
REMARK  163  A    between atoms: _405  and  _406
REMARK  164  A    between atoms: _405  and  _408
REMARK  165  A    between atoms: _408  and  _409
REMARK  166  A    between atoms: _415  and  _417
REMARK  167  A    between atoms: _417  and  _418
REMARK  168  A    between atoms: _417  and  _420
REMARK  169  A    between atoms: _420  and  _421
REMARK  170  A    between atoms: _424  and  _426
REMARK  171  A    between atoms: _426  and  _427
REMARK  172  A    between atoms: _426  and  _429
REMARK  173  A    between atoms: _429  and  _430
REMARK  174  A    between atoms: _433  and  _435
REMARK  175  A    between atoms: _435  and  _436
REMARK  176  A    between atoms: _435  and  _438
REMARK  177  A    between atoms: _438  and  _439
REMARK  178  A    between atoms: _445  and  _446
REMARK  179  A    between atoms: _451  and  _453
REMARK  180  A    between atoms: _453  and  _454
REMARK  181  A    between atoms: _453  and  _456
REMARK  182  A    between atoms: _456  and  _457
REMARK  183  A    between atoms: _459  and  _461
REMARK  184  A    between atoms: _461  and  _462
REMARK  185  A    between atoms: _461  and  _464
REMARK  186  A    between atoms: _464  and  _465
REMARK  187  A    between atoms: _468  and  _470
REMARK  188  A    between atoms: _470  and  _471
REMARK  189  A    between atoms: _470  and  _473
REMARK  190  A    between atoms: _473  and  _474
REMARK  191  A    between atoms: _479  and  _481
REMARK  192  A    between atoms: _481  and  _482
REMARK  193  A    between atoms: _481  and  _484
REMARK  194  A    between atoms: _484  and  _485
REMARK  195  A    between atoms: _485  and  _486
REMARK  196  A    between atoms: _489  and  _491
REMARK  197  A    between atoms: _491  and  _492
REMARK  198  A    between atoms: _491  and  _494
REMARK  199  A    between atoms: _494  and  _495
REMARK  200  A    between atoms: _500  and  _502
REMARK  201  A    between atoms: _502  and  _503
REMARK  202  A    between atoms: _502  and  _505
REMARK  203  A    between atoms: _505  and  _506
REMARK  204  A    between atoms: _509  and  _511
REMARK  205  A    between atoms: _511  and  _512
REMARK  206  A    between atoms: _511  and  _514
REMARK  207  A    between atoms: _514  and  _515
REMARK                            x       y       z     vdW  Elec       q    Type
REMARK                         _______ _______ _______ _____ _____    ______ ____
ROOT
ATOM      1  O   HOH     1     -20.338   6.088 -28.594  0.00  0.00    +0.000 OA
ENDROOT
TORSDOF 0
REMARK  Name = ../refined-set-2016/3q71/3q71_pocket.pdb
REMARK  207 active torsions:
REMARK  status: ('A' for Active; 'I' for Inactive)
REMARK    1  A    between atoms: _1  and  _3
REMARK    2  A    between atoms: _3  and  _4
REMARK    3  A    between atoms: _3  and  _6
REMARK    4  A    between atoms: _9  and  _11
REMARK    5  A    between atoms: _11  and  _12
REMARK    6  A    between atoms: _11  and  _14
REMARK    7  A    between atoms: _14  and  _15
REMARK    8  A    between atoms: _15  and  _16
REMARK    9  A    between atoms: _16  and  _17
REMARK   10  A    between atoms: _17  and  _18
REMARK   11  A    between atoms: _22  and  _24
REMARK   12  A    between atoms: _24  and  _25
REMARK   13  A    between atoms: _24  and  _27
REMARK   14  A    between atoms: _27  and  _28
REMARK   15  A    between atoms: _28  and  _29
REMARK   16  A    between atoms: _32  and  _34
REMARK   17  A    between atoms: _34  and  _35
REMARK   18  A    between atoms: _37  and  _39
REMARK   19  A    between atoms: _39  and  _40
REMARK   20  A    between atoms: _39  and  _42
REMARK   21  A    between atoms: _45  and  _47
REMARK   22  A    between atoms: _47  and  _48
REMARK   23  A    between atoms: _47  and  _50
REMARK   24  A    between atoms: _50  and  _51
REMARK   25  A    between atoms: _51  and  _52
REMARK   26  A    between atoms: _57  and  _59
REMARK   27  A    between atoms: _59  and  _60
REMARK   28  A    between atoms: _59  and  _62
REMARK   29  A    between atoms: _62  and  _63
REMARK   30  A    between atoms: _68  and  _70
REMARK   31  A    between atoms: _70  and  _71
REMARK   32  A    between atoms: _74  and  _76
REMARK   33  A    between atoms: _76  and  _77
REMARK   34  A    between atoms: _76  and  _79
REMARK   35  A    between atoms: _79  and  _80
REMARK   36  A    between atoms: _85  and  _87
REMARK   37  A    between atoms: _87  and  _88
REMARK   38  A    between atoms: _87  and  _90
REMARK   39  A    between atoms: _90  and  _91
REMARK   40  A    between atoms: _93  and  _95
REMARK   41  A    between atoms: _95  and  _96
REMARK   42  A    between atoms: _95  and  _98
REMARK   43  A    between atoms: _102  and  _103
REMARK   44  A    between atoms: _108  and  _110
REMARK   45  A    between atoms: _110  and  _111
REMARK   46  A    between atoms: _110  and  _113
REMARK   47  A    between atoms: _113  and  _114
REMARK   48  A    between atoms: _117  and  _119
REMARK   49  A    between atoms: _119  and  _120
REMARK   50  A    between atoms: _119  and  _122
REMARK   51  A    between atoms: _122  and  _123
REMARK   52  A    between atoms: _126  and  _128
REMARK   53  A    between atoms: _128  and  _129
REMARK   54  A    between atoms: _128  and  _131
REMARK   55  A    between atoms: _131  and  _132
REMARK   56  A    between atoms: _135  and  _137
REMARK   57  A    between atoms: _137  and  _138
REMARK   58  A    between atoms: _137  and  _140
REMARK   59  A    between atoms: _143  and  _145
REMARK   60  A    between atoms: _145  and  _146
REMARK   61  A    between atoms: _145  and  _148
REMARK   62  A    between atoms: _148  and  _149
REMARK   63  A    between atoms: _152  and  _154
REMARK   64  A    between atoms: _154  and  _155
REMARK   65  A    between atoms: _154  and  _157
REMARK   66  A    between atoms: _157  and  _158
REMARK   67  A    between atoms: _160  and  _162
REMARK   68  A    between atoms: _162  and  _163
REMARK   69  A    between atoms: _162  and  _165
REMARK   70  A    between atoms: _165  and  _166
REMARK   71  A    between atoms: _166  and  _167
REMARK   72  A    between atoms: _167  and  _168
REMARK   73  A    between atoms: _177  and  _179
REMARK   74  A    between atoms: _179  and  _180
REMARK   75  A    between atoms: _183  and  _184
REMARK   76  A    between atoms: _189  and  _191
REMARK   77  A    between atoms: _191  and  _192
REMARK   78  A    between atoms: _191  and  _194
REMARK   79  A    between atoms: _194  and  _195
REMARK   80  A    between atoms: _198  and  _200
REMARK   81  A    between atoms: _200  and  _201
REMARK   82  A    between atoms: _200  and  _203
REMARK   83  A    between atoms: _203  and  _204
REMARK   84  A    between atoms: _206  and  _208
REMARK   85  A    between atoms: _208  and  _209
REMARK   86  A    between atoms: _208  and  _211
REMARK   87  A    between atoms: _211  and  _212
REMARK   88  A    between atoms: _212  and  _213
REMARK   89  A    between atoms: _213  and  _214
REMARK   90  A    between atoms: _214  and  _215
REMARK   91  A    between atoms: _219  and  _221
REMARK   92  A    between atoms: _221  and  _222
REMARK   93  A    between atoms: _221  and  _224
REMARK   94  A    between atoms: _224  and  _225
REMARK   95  A    between atoms: _227  and  _229
REMARK   96  A    between atoms: _229  and  _230
REMARK   97  A    between atoms: _229  and  _232
REMARK   98  A    between atoms: _232  and  _233
REMARK   99  A    between atoms: _236  and  _238
REMARK  100  A    between atoms: _238  and  _239
REMARK  101  A    between atoms: _238  and  _241
REMARK  102  A    between atoms: _244  and  _246
REMARK  103  A    between atoms: _246  and  _247
REMARK  104  A    between atoms: _246  and  _249
REMARK  105  A    between atoms: _252  and  _254
REMARK  106  A    between atoms: _254  and  _255
REMARK  107  A    between atoms: _259  and  _260
REMARK  108  A    between atoms: _265  and  _267
REMARK  109  A    between atoms: _267  and  _268
REMARK  110  A    between atoms: _267  and  _270
REMARK  111  A    between atoms: _270  and  _271
REMARK  112  A    between atoms: _271  and  _272
REMARK  113  A    between atoms: _275  and  _277
REMARK  114  A    between atoms: _277  and  _278
REMARK  115  A    between atoms: _277  and  _280
REMARK  116  A    between atoms: _280  and  _281
REMARK  117  A    between atoms: _291  and  _293
REMARK  118  A    between atoms: _293  and  _294
REMARK  119  A    between atoms: _293  and  _296
REMARK  120  A    between atoms: _296  and  _297
REMARK  121  A    between atoms: _297  and  _298
REMARK  122  A    between atoms: _300  and  _302
REMARK  123  A    between atoms: _302  and  _303
REMARK  124  A    between atoms: _302  and  _305
REMARK  125  A    between atoms: _305  and  _306
REMARK  126  A    between atoms: _313  and  _314
REMARK  127  A    between atoms: _319  and  _321
REMARK  128  A    between atoms: _321  and  _322
REMARK  129  A    between atoms: _325  and  _327
REMARK  130  A    between atoms: _327  and  _328
REMARK  131  A    between atoms: _327  and  _330
REMARK  132  A    between atoms: _330  and  _331
REMARK  133  A    between atoms: _334  and  _336
REMARK  134  A    between atoms: _336  and  _337
REMARK  135  A    between atoms: _339  and  _341
REMARK  136  A    between atoms: _341  and  _342
REMARK  137  A    between atoms: _341  and  _344
REMARK  138  A    between atoms: _344  and  _345
REMARK  139  A    between atoms: _348  and  _350
REMARK  140  A    between atoms: _350  and  _351
REMARK  141  A    between atoms: _353  and  _355
REMARK  142  A    between atoms: _355  and  _356
REMARK  143  A    between atoms: _355  and  _358
REMARK  144  A    between atoms: _358  and  _359
REMARK  145  A    between atoms: _364  and  _366
REMARK  146  A    between atoms: _366  and  _367
REMARK  147  A    between atoms: _366  and  _369
REMARK  148  A    between atoms: _369  and  _370
REMARK  149  A    between atoms: _373  and  _375
REMARK  150  A    between atoms: _375  and  _376
REMARK  151  A    between atoms: _378  and  _380
REMARK  152  A    between atoms: _380  and  _381
REMARK  153  A    between atoms: _380  and  _383
REMARK  154  A    between atoms: _383  and  _384
REMARK  155  A    between atoms: _390  and  _392
REMARK  156  A    between atoms: _392  and  _393
REMARK  157  A    between atoms: _392  and  _395
REMARK  158  A    between atoms: _395  and  _396
REMARK  159  A    between atoms: _396  and  _397
REMARK  160  A    between atoms: _397  and  _398
REMARK  161  A    between atoms: _398  and  _399
REMARK  162  A    between atoms: _403  and  _405
REMARK  163  A    between atoms: _405  and  _406
REMARK  164  A    between atoms: _405  and  _408
REMARK  165  A    between atoms: _408  and  _409
REMARK  166  A    between atoms: _415  and  _417
REMARK  167  A    between atoms: _417  and  _418
REMARK  168  A    between atoms: _417  and  _420
REMARK  169  A    between atoms: _420  and  _421
REMARK  170  A    between atoms: _424  and  _426
REMARK  171  A    between atoms: _426  and  _427
REMARK  172  A    between atoms: _426  and  _429
REMARK  173  A    between atoms: _429  and  _430
REMARK  174  A    between atoms: _433  and  _435
REMARK  175  A    between atoms: _435  and  _436
REMARK  176  A    between atoms: _435  and  _438
REMARK  177  A    between atoms: _438  and  _439
REMARK  178  A    between atoms: _445  and  _446
REMARK  179  A    between atoms: _451  and  _453
REMARK  180  A    between atoms: _453  and  _454
REMARK  181  A    between atoms: _453  and  _456
REMARK  182  A    between atoms: _456  and  _457
REMARK  183  A    between atoms: _459  and  _461
REMARK  184  A    between atoms: _461  and  _462
REMARK  185  A    between atoms: _461  and  _464
REMARK  186  A    between atoms: _464  and  _465
REMARK  187  A    between atoms: _468  and  _470
REMARK  188  A    between atoms: _470  and  _471
REMARK  189  A    between atoms: _470  and  _473
REMARK  190  A    between atoms: _473  and  _474
REMARK  191  A    between atoms: _479  and  _481
REMARK  192  A    between atoms: _481  and  _482
REMARK  193  A    between atoms: _481  and  _484
REMARK  194  A    between atoms: _484  and  _485
REMARK  195  A    between atoms: _485  and  _486
REMARK  196  A    between atoms: _489  and  _491
REMARK  197  A    between atoms: _491  and  _492
REMARK  198  A    between atoms: _491  and  _494
REMARK  199  A    between atoms: _494  and  _495
REMARK  200  A    between atoms: _500  and  _502
REMARK  201  A    between atoms: _502  and  _503
REMARK  202  A    between atoms: _502  and  _505
REMARK  203  A    between atoms: _505  and  _506
REMARK  204  A    between atoms: _509  and  _511
REMARK  205  A    between atoms: _511  and  _512
REMARK  206  A    between atoms: _511  and  _514
REMARK  207  A    between atoms: _514  and  _515
REMARK                            x       y       z     vdW  Elec       q    Type
REMARK                         _______ _______ _______ _____ _____    ______ ____
ROOT
ATOM      1  O   HOH     1     -20.446  12.055 -23.520  0.00  0.00    +0.000 OA
ENDROOT
TORSDOF 0
REMARK  Name = ../refined-set-2016/3q71/3q71_pocket.pdb
REMARK  207 active torsions:
REMARK  status: ('A' for Active; 'I' for Inactive)
REMARK    1  A    between atoms: _1  and  _3
REMARK    2  A    between atoms: _3  and  _4
REMARK    3  A    between atoms: _3  and  _6
REMARK    4  A    between atoms: _9  and  _11
REMARK    5  A    between atoms: _11  and  _12
REMARK    6  A    between atoms: _11  and  _14
REMARK    7  A    between atoms: _14  and  _15
REMARK    8  A    between atoms: _15  and  _16
REMARK    9  A    between atoms: _16  and  _17
REMARK   10  A    between atoms: _17  and  _18
REMARK   11  A    between atoms: _22  and  _24
REMARK   12  A    between atoms: _24  and  _25
REMARK   13  A    between atoms: _24  and  _27
REMARK   14  A    between atoms: _27  and  _28
REMARK   15  A    between atoms: _28  and  _29
REMARK   16  A    between atoms: _32  and  _34
REMARK   17  A    between atoms: _34  and  _35
REMARK   18  A    between atoms: _37  and  _39
REMARK   19  A    between atoms: _39  and  _40
REMARK   20  A    between atoms: _39  and  _42
REMARK   21  A    between atoms: _45  and  _47
REMARK   22  A    between atoms: _47  and  _48
REMARK   23  A    between atoms: _47  and  _50
REMARK   24  A    between atoms: _50  and  _51
REMARK   25  A    between atoms: _51  and  _52
REMARK   26  A    between atoms: _57  and  _59
REMARK   27  A    between atoms: _59  and  _60
REMARK   28  A    between atoms: _59  and  _62
REMARK   29  A    between atoms: _62  and  _63
REMARK   30  A    between atoms: _68  and  _70
REMARK   31  A    between atoms: _70  and  _71
REMARK   32  A    between atoms: _74  and  _76
REMARK   33  A    between atoms: _76  and  _77
REMARK   34  A    between atoms: _76  and  _79
REMARK   35  A    between atoms: _79  and  _80
REMARK   36  A    between atoms: _85  and  _87
REMARK   37  A    between atoms: _87  and  _88
REMARK   38  A    between atoms: _87  and  _90
REMARK   39  A    between atoms: _90  and  _91
REMARK   40  A    between atoms: _93  and  _95
REMARK   41  A    between atoms: _95  and  _96
REMARK   42  A    between atoms: _95  and  _98
REMARK   43  A    between atoms: _102  and  _103
REMARK   44  A    between atoms: _108  and  _110
REMARK   45  A    between atoms: _110  and  _111
REMARK   46  A    between atoms: _110  and  _113
REMARK   47  A    between atoms: _113  and  _114
REMARK   48  A    between atoms: _117  and  _119
REMARK   49  A    between atoms: _119  and  _120
REMARK   50  A    between atoms: _119  and  _122
REMARK   51  A    between atoms: _122  and  _123
REMARK   52  A    between atoms: _126  and  _128
REMARK   53  A    between atoms: _128  and  _129
REMARK   54  A    between atoms: _128  and  _131
REMARK   55  A    between atoms: _131  and  _132
REMARK   56  A    between atoms: _135  and  _137
REMARK   57  A    between atoms: _137  and  _138
REMARK   58  A    between atoms: _137  and  _140
REMARK   59  A    between atoms: _143  and  _145
REMARK   60  A    between atoms: _145  and  _146
REMARK   61  A    between atoms: _145  and  _148
REMARK   62  A    between atoms: _148  and  _149
REMARK   63  A    between atoms: _152  and  _154
REMARK   64  A    between atoms: _154  and  _155
REMARK   65  A    between atoms: _154  and  _157
REMARK   66  A    between atoms: _157  and  _158
REMARK   67  A    between atoms: _160  and  _162
REMARK   68  A    between atoms: _162  and  _163
REMARK   69  A    between atoms: _162  and  _165
REMARK   70  A    between atoms: _165  and  _166
REMARK   71  A    between atoms: _166  and  _167
REMARK   72  A    between atoms: _167  and  _168
REMARK   73  A    between atoms: _177  and  _179
REMARK   74  A    between atoms: _179  and  _180
REMARK   75  A    between atoms: _183  and  _184
REMARK   76  A    between atoms: _189  and  _191
REMARK   77  A    between atoms: _191  and  _192
REMARK   78  A    between atoms: _191  and  _194
REMARK   79  A    between atoms: _194  and  _195
REMARK   80  A    between atoms: _198  and  _200
REMARK   81  A    between atoms: _200  and  _201
REMARK   82  A    between atoms: _200  and  _203
REMARK   83  A    between atoms: _203  and  _204
REMARK   84  A    between atoms: _206  and  _208
REMARK   85  A    between atoms: _208  and  _209
REMARK   86  A    between atoms: _208  and  _211
REMARK   87  A    between atoms: _211  and  _212
REMARK   88  A    between atoms: _212  and  _213
REMARK   89  A    between atoms: _213  and  _214
REMARK   90  A    between atoms: _214  and  _215
REMARK   91  A    between atoms: _219  and  _221
REMARK   92  A    between atoms: _221  and  _222
REMARK   93  A    between atoms: _221  and  _224
REMARK   94  A    between atoms: _224  and  _225
REMARK   95  A    between atoms: _227  and  _229
REMARK   96  A    between atoms: _229  and  _230
REMARK   97  A    between atoms: _229  and  _232
REMARK   98  A    between atoms: _232  and  _233
REMARK   99  A    between atoms: _236  and  _238
REMARK  100  A    between atoms: _238  and  _239
REMARK  101  A    between atoms: _238  and  _241
REMARK  102  A    between atoms: _244  and  _246
REMARK  103  A    between atoms: _246  and  _247
REMARK  104  A    between atoms: _246  and  _249
REMARK  105  A    between atoms: _252  and  _254
REMARK  106  A    between atoms: _254  and  _255
REMARK  107  A    between atoms: _259  and  _260
REMARK  108  A    between atoms: _265  and  _267
REMARK  109  A    between atoms: _267  and  _268
REMARK  110  A    between atoms: _267  and  _270
REMARK  111  A    between atoms: _270  and  _271
REMARK  112  A    between atoms: _271  and  _272
REMARK  113  A    between atoms: _275  and  _277
REMARK  114  A    between atoms: _277  and  _278
REMARK  115  A    between atoms: _277  and  _280
REMARK  116  A    between atoms: _280  and  _281
REMARK  117  A    between atoms: _291  and  _293
REMARK  118  A    between atoms: _293  and  _294
REMARK  119  A    between atoms: _293  and  _296
REMARK  120  A    between atoms: _296  and  _297
REMARK  121  A    between atoms: _297  and  _298
REMARK  122  A    between atoms: _300  and  _302
REMARK  123  A    between atoms: _302  and  _303
REMARK  124  A    between atoms: _302  and  _305
REMARK  125  A    between atoms: _305  and  _306
REMARK  126  A    between atoms: _313  and  _314
REMARK  127  A    between atoms: _319  and  _321
REMARK  128  A    between atoms: _321  and  _322
REMARK  129  A    between atoms: _325  and  _327
REMARK  130  A    between atoms: _327  and  _328
REMARK  131  A    between atoms: _327  and  _330
REMARK  132  A    between atoms: _330  and  _331
REMARK  133  A    between atoms: _334  and  _336
REMARK  134  A    between atoms: _336  and  _337
REMARK  135  A    between atoms: _339  and  _341
REMARK  136  A    between atoms: _341  and  _342
REMARK  137  A    between atoms: _341  and  _344
REMARK  138  A    between atoms: _344  and  _345
REMARK  139  A    between atoms: _348  and  _350
REMARK  140  A    between atoms: _350  and  _351
REMARK  141  A    between atoms: _353  and  _355
REMARK  142  A    between atoms: _355  and  _356
REMARK  143  A    between atoms: _355  and  _358
REMARK  144  A    between atoms: _358  and  _359
REMARK  145  A    between atoms: _364  and  _366
REMARK  146  A    between atoms: _366  and  _367
REMARK  147  A    between atoms: _366  and  _369
REMARK  148  A    between atoms: _369  and  _370
REMARK  149  A    between atoms: _373  and  _375
REMARK  150  A    between atoms: _375  and  _376
REMARK  151  A    between atoms: _378  and  _380
REMARK  152  A    between atoms: _380  and  _381
REMARK  153  A    between atoms: _380  and  _383
REMARK  154  A    between atoms: _383  and  _384
REMARK  155  A    between atoms: _390  and  _392
REMARK  156  A    between atoms: _392  and  _393
REMARK  157  A    between atoms: _392  and  _395
REMARK  158  A    between atoms: _395  and  _396
REMARK  159  A    between atoms: _396  and  _397
REMARK  160  A    between atoms: _397  and  _398
REMARK  161  A    between atoms: _398  and  _399
REMARK  162  A    between atoms: _403  and  _405
REMARK  163  A    between atoms: _405  and  _406
REMARK  164  A    between atoms: _405  and  _408
REMARK  165  A    between atoms: _408  and  _409
REMARK  166  A    between atoms: _415  and  _417
REMARK  167  A    between atoms: _417  and  _418
REMARK  168  A    between atoms: _417  and  _420
REMARK  169  A    between atoms: _420  and  _421
REMARK  170  A    between atoms: _424  and  _426
REMARK  171  A    between atoms: _426  and  _427
REMARK  172  A    between atoms: _426  and  _429
REMARK  173  A    between atoms: _429  and  _430
REMARK  174  A    between atoms: _433  and  _435
REMARK  175  A    between atoms: _435  and  _436
REMARK  176  A    between atoms: _435  and  _438
REMARK  177  A    between atoms: _438  and  _439
REMARK  178  A    between atoms: _445  and  _446
REMARK  179  A    between atoms: _451  and  _453
REMARK  180  A    between atoms: _453  and  _454
REMARK  181  A    between atoms: _453  and  _456
REMARK  182  A    between atoms: _456  and  _457
REMARK  183  A    between atoms: _459  and  _461
REMARK  184  A    between atoms: _461  and  _462
REMARK  185  A    between atoms: _461  and  _464
REMARK  186  A    between atoms: _464  and  _465
REMARK  187  A    between atoms: _468  and  _470
REMARK  188  A    between atoms: _470  and  _471
REMARK  189  A    between atoms: _470  and  _473
REMARK  190  A    between atoms: _473  and  _474
REMARK  191  A    between atoms: _479  and  _481
REMARK  192  A    between atoms: _481  and  _482
REMARK  193  A    between atoms: _481  and  _484
REMARK  194  A    between atoms: _484  and  _485
REMARK  195  A    between atoms: _485  and  _486
REMARK  196  A    between atoms: _489  and  _491
REMARK  197  A    between atoms: _491  and  _492
REMARK  198  A    between atoms: _491  and  _494
REMARK  199  A    between atoms: _494  and  _495
REMARK  200  A    between atoms: _500  and  _502
REMARK  201  A    between atoms: _502  and  _503
REMARK  202  A    between atoms: _502  and  _505
REMARK  203  A    between atoms: _505  and  _506
REMARK  204  A    between atoms: _509  and  _511
REMARK  205  A    between atoms: _511  and  _512
REMARK  206  A    between atoms: _511  and  _514
REMARK  207  A    between atoms: _514  and  _515
REMARK                            x       y       z     vdW  Elec       q    Type
REMARK                         _______ _______ _______ _____ _____    ______ ____
ROOT
ATOM      1  O   HOH     1     -21.359  17.629 -16.859  0.00  0.00    +0.000 OA
ENDROOT
TORSDOF 0
REMARK  Name = ../refined-set-2016/3q71/3q71_pocket.pdb
REMARK  207 active torsions:
REMARK  status: ('A' for Active; 'I' for Inactive)
REMARK    1  A    between atoms: _1  and  _3
REMARK    2  A    between atoms: _3  and  _4
REMARK    3  A    between atoms: _3  and  _6
REMARK    4  A    between atoms: _9  and  _11
REMARK    5  A    between atoms: _11  and  _12
REMARK    6  A    between atoms: _11  and  _14
REMARK    7  A    between atoms: _14  and  _15
REMARK    8  A    between atoms: _15  and  _16
REMARK    9  A    between atoms: _16  and  _17
REMARK   10  A    between atoms: _17  and  _18
REMARK   11  A    between atoms: _22  and  _24
REMARK   12  A    between atoms: _24  and  _25
REMARK   13  A    between atoms: _24  and  _27
REMARK   14  A    between atoms: _27  and  _28
REMARK   15  A    between atoms: _28  and  _29
REMARK   16  A    between atoms: _32  and  _34
REMARK   17  A    between atoms: _34  and  _35
REMARK   18  A    between atoms: _37  and  _39
REMARK   19  A    between atoms: _39  and  _40
REMARK   20  A    between atoms: _39  and  _42
REMARK   21  A    between atoms: _45  and  _47
REMARK   22  A    between atoms: _47  and  _48
REMARK   23  A    between atoms: _47  and  _50
REMARK   24  A    between atoms: _50  and  _51
REMARK   25  A    between atoms: _51  and  _52
REMARK   26  A    between atoms: _57  and  _59
REMARK   27  A    between atoms: _59  and  _60
REMARK   28  A    between atoms: _59  and  _62
REMARK   29  A    between atoms: _62  and  _63
REMARK   30  A    between atoms: _68  and  _70
REMARK   31  A    between atoms: _70  and  _71
REMARK   32  A    between atoms: _74  and  _76
REMARK   33  A    between atoms: _76  and  _77
REMARK   34  A    between atoms: _76  and  _79
REMARK   35  A    between atoms: _79  and  _80
REMARK   36  A    between atoms: _85  and  _87
REMARK   37  A    between atoms: _87  and  _88
REMARK   38  A    between atoms: _87  and  _90
REMARK   39  A    between atoms: _90  and  _91
REMARK   40  A    between atoms: _93  and  _95
REMARK   41  A    between atoms: _95  and  _96
REMARK   42  A    between atoms: _95  and  _98
REMARK   43  A    between atoms: _102  and  _103
REMARK   44  A    between atoms: _108  and  _110
REMARK   45  A    between atoms: _110  and  _111
REMARK   46  A    between atoms: _110  and  _113
REMARK   47  A    between atoms: _113  and  _114
REMARK   48  A    between atoms: _117  and  _119
REMARK   49  A    between atoms: _119  and  _120
REMARK   50  A    between atoms: _119  and  _122
REMARK   51  A    between atoms: _122  and  _123
REMARK   52  A    between atoms: _126  and  _128
REMARK   53  A    between atoms: _128  and  _129
REMARK   54  A    between atoms: _128  and  _131
REMARK   55  A    between atoms: _131  and  _132
REMARK   56  A    between atoms: _135  and  _137
REMARK   57  A    between atoms: _137  and  _138
REMARK   58  A    between atoms: _137  and  _140
REMARK   59  A    between atoms: _143  and  _145
REMARK   60  A    between atoms: _145  and  _146
REMARK   61  A    between atoms: _145  and  _148
REMARK   62  A    between atoms: _148  and  _149
REMARK   63  A    between atoms: _152  and  _154
REMARK   64  A    between atoms: _154  and  _155
REMARK   65  A    between atoms: _154  and  _157
REMARK   66  A    between atoms: _157  and  _158
REMARK   67  A    between atoms: _160  and  _162
REMARK   68  A    between atoms: _162  and  _163
REMARK   69  A    between atoms: _162  and  _165
REMARK   70  A    between atoms: _165  and  _166
REMARK   71  A    between atoms: _166  and  _167
REMARK   72  A    between atoms: _167  and  _168
REMARK   73  A    between atoms: _177  and  _179
REMARK   74  A    between atoms: _179  and  _180
REMARK   75  A    between atoms: _183  and  _184
REMARK   76  A    between atoms: _189  and  _191
REMARK   77  A    between atoms: _191  and  _192
REMARK   78  A    between atoms: _191  and  _194
REMARK   79  A    between atoms: _194  and  _195
REMARK   80  A    between atoms: _198  and  _200
REMARK   81  A    between atoms: _200  and  _201
REMARK   82  A    between atoms: _200  and  _203
REMARK   83  A    between atoms: _203  and  _204
REMARK   84  A    between atoms: _206  and  _208
REMARK   85  A    between atoms: _208  and  _209
REMARK   86  A    between atoms: _208  and  _211
REMARK   87  A    between atoms: _211  and  _212
REMARK   88  A    between atoms: _212  and  _213
REMARK   89  A    between atoms: _213  and  _214
REMARK   90  A    between atoms: _214  and  _215
REMARK   91  A    between atoms: _219  and  _221
REMARK   92  A    between atoms: _221  and  _222
REMARK   93  A    between atoms: _221  and  _224
REMARK   94  A    between atoms: _224  and  _225
REMARK   95  A    between atoms: _227  and  _229
REMARK   96  A    between atoms: _229  and  _230
REMARK   97  A    between atoms: _229  and  _232
REMARK   98  A    between atoms: _232  and  _233
REMARK   99  A    between atoms: _236  and  _238
REMARK  100  A    between atoms: _238  and  _239
REMARK  101  A    between atoms: _238  and  _241
REMARK  102  A    between atoms: _244  and  _246
REMARK  103  A    between atoms: _246  and  _247
REMARK  104  A    between atoms: _246  and  _249
REMARK  105  A    between atoms: _252  and  _254
REMARK  106  A    between atoms: _254  and  _255
REMARK  107  A    between atoms: _259  and  _260
REMARK  108  A    between atoms: _265  and  _267
REMARK  109  A    between atoms: _267  and  _268
REMARK  110  A    between atoms: _267  and  _270
REMARK  111  A    between atoms: _270  and  _271
REMARK  112  A    between atoms: _271  and  _272
REMARK  113  A    between atoms: _275  and  _277
REMARK  114  A    between atoms: _277  and  _278
REMARK  115  A    between atoms: _277  and  _280
REMARK  116  A    between atoms: _280  and  _281
REMARK  117  A    between atoms: _291  and  _293
REMARK  118  A    between atoms: _293  and  _294
REMARK  119  A    between atoms: _293  and  _296
REMARK  120  A    between atoms: _296  and  _297
REMARK  121  A    between atoms: _297  and  _298
REMARK  122  A    between atoms: _300  and  _302
REMARK  123  A    between atoms: _302  and  _303
REMARK  124  A    between atoms: _302  and  _305
REMARK  125  A    between atoms: _305  and  _306
REMARK  126  A    between atoms: _313  and  _314
REMARK  127  A    between atoms: _319  and  _321
REMARK  128  A    between atoms: _321  and  _322
REMARK  129  A    between atoms: _325  and  _327
REMARK  130  A    between atoms: _327  and  _328
REMARK  131  A    between atoms: _327  and  _330
REMARK  132  A    between atoms: _330  and  _331
REMARK  133  A    between atoms: _334  and  _336
REMARK  134  A    between atoms: _336  and  _337
REMARK  135  A    between atoms: _339  and  _341
REMARK  136  A    between atoms: _341  and  _342
REMARK  137  A    between atoms: _341  and  _344
REMARK  138  A    between atoms: _344  and  _345
REMARK  139  A    between atoms: _348  and  _350
REMARK  140  A    between atoms: _350  and  _351
REMARK  141  A    between atoms: _353  and  _355
REMARK  142  A    between atoms: _355  and  _356
REMARK  143  A    between atoms: _355  and  _358
REMARK  144  A    between atoms: _358  and  _359
REMARK  145  A    between atoms: _364  and  _366
REMARK  146  A    between atoms: _366  and  _367
REMARK  147  A    between atoms: _366  and  _369
REMARK  148  A    between atoms: _369  and  _370
REMARK  149  A    between atoms: _373  and  _375
REMARK  150  A    between atoms: _375  and  _376
REMARK  151  A    between atoms: _378  and  _380
REMARK  152  A    between atoms: _380  and  _381
REMARK  153  A    between atoms: _380  and  _383
REMARK  154  A    between atoms: _383  and  _384
REMARK  155  A    between atoms: _390  and  _392
REMARK  156  A    between atoms: _392  and  _393
REMARK  157  A    between atoms: _392  and  _395
REMARK  158  A    between atoms: _395  and  _396
REMARK  159  A    between atoms: _396  and  _397
REMARK  160  A    between atoms: _397  and  _398
REMARK  161  A    between atoms: _398  and  _399
REMARK  162  A    between atoms: _403  and  _405
REMARK  163  A    between atoms: _405  and  _406
REMARK  164  A    between atoms: _405  and  _408
REMARK  165  A    between atoms: _408  and  _409
REMARK  166  A    between atoms: _415  and  _417
REMARK  167  A    between atoms: _417  and  _418
REMARK  168  A    between atoms: _417  and  _420
REMARK  169  A    between atoms: _420  and  _421
REMARK  170  A    between atoms: _424  and  _426
REMARK  171  A    between atoms: _426  and  _427
REMARK  172  A    between atoms: _426  and  _429
REMARK  173  A    between atoms: _429  and  _430
REMARK  174  A    between atoms: _433  and  _435
REMARK  175  A    between atoms: _435  and  _436
REMARK  176  A    between atoms: _435  and  _438
REMARK  177  A    between atoms: _438  and  _439
REMARK  178  A    between atoms: _445  and  _446
REMARK  179  A    between atoms: _451  and  _453
REMARK  180  A    between atoms: _453  and  _454
REMARK  181  A    between atoms: _453  and  _456
REMARK  182  A    between atoms: _456  and  _457
REMARK  183  A    between atoms: _459  and  _461
REMARK  184  A    between atoms: _461  and  _462
REMARK  185  A    between atoms: _461  and  _464
REMARK  186  A    between atoms: _464  and  _465
REMARK  187  A    between atoms: _468  and  _470
REMARK  188  A    between atoms: _470  and  _471
REMARK  189  A    between atoms: _470  and  _473
REMARK  190  A    between atoms: _473  and  _474
REMARK  191  A    between atoms: _479  and  _481
REMARK  192  A    between atoms: _481  and  _482
REMARK  193  A    between atoms: _481  and  _484
REMARK  194  A    between atoms: _484  and  _485
REMARK  195  A    between atoms: _485  and  _486
REMARK  196  A    between atoms: _489  and  _491
REMARK  197  A    between atoms: _491  and  _492
REMARK  198  A    between atoms: _491  and  _494
REMARK  199  A    between atoms: _494  and  _495
REMARK  200  A    between atoms: _500  and  _502
REMARK  201  A    between atoms: _502  and  _503
REMARK  202  A    between atoms: _502  and  _505
REMARK  203  A    between atoms: _505  and  _506
REMARK  204  A    between atoms: _509  and  _511
REMARK  205  A    between atoms: _511  and  _512
REMARK  206  A    between atoms: _511  and  _514
REMARK  207  A    between atoms: _514  and  _515
REMARK                            x       y       z     vdW  Elec       q    Type
REMARK                         _______ _______ _______ _____ _____    ______ ____
ROOT
ATOM      1  O   HOH     1     -21.407   9.839 -27.427  0.00  0.00    +0.000 OA
ENDROOT
TORSDOF 0
REMARK  Name = ../refined-set-2016/3q71/3q71_pocket.pdb
REMARK  207 active torsions:
REMARK  status: ('A' for Active; 'I' for Inactive)
REMARK    1  A    between atoms: _1  and  _3
REMARK    2  A    between atoms: _3  and  _4
REMARK    3  A    between atoms: _3  and  _6
REMARK    4  A    between atoms: _9  and  _11
REMARK    5  A    between atoms: _11  and  _12
REMARK    6  A    between atoms: _11  and  _14
REMARK    7  A    between atoms: _14  and  _15
REMARK    8  A    between atoms: _15  and  _16
REMARK    9  A    between atoms: _16  and  _17
REMARK   10  A    between atoms: _17  and  _18
REMARK   11  A    between atoms: _22  and  _24
REMARK   12  A    between atoms: _24  and  _25
REMARK   13  A    between atoms: _24  and  _27
REMARK   14  A    between atoms: _27  and  _28
REMARK   15  A    between atoms: _28  and  _29
REMARK   16  A    between atoms: _32  and  _34
REMARK   17  A    between atoms: _34  and  _35
REMARK   18  A    between atoms: _37  and  _39
REMARK   19  A    between atoms: _39  and  _40
REMARK   20  A    between atoms: _39  and  _42
REMARK   21  A    between atoms: _45  and  _47
REMARK   22  A    between atoms: _47  and  _48
REMARK   23  A    between atoms: _47  and  _50
REMARK   24  A    between atoms: _50  and  _51
REMARK   25  A    between atoms: _51  and  _52
REMARK   26  A    between atoms: _57  and  _59
REMARK   27  A    between atoms: _59  and  _60
REMARK   28  A    between atoms: _59  and  _62
REMARK   29  A    between atoms: _62  and  _63
REMARK   30  A    between atoms: _68  and  _70
REMARK   31  A    between atoms: _70  and  _71
REMARK   32  A    between atoms: _74  and  _76
REMARK   33  A    between atoms: _76  and  _77
REMARK   34  A    between atoms: _76  and  _79
REMARK   35  A    between atoms: _79  and  _80
REMARK   36  A    between atoms: _85  and  _87
REMARK   37  A    between atoms: _87  and  _88
REMARK   38  A    between atoms: _87  and  _90
REMARK   39  A    between atoms: _90  and  _91
REMARK   40  A    between atoms: _93  and  _95
REMARK   41  A    between atoms: _95  and  _96
REMARK   42  A    between atoms: _95  and  _98
REMARK   43  A    between atoms: _102  and  _103
REMARK   44  A    between atoms: _108  and  _110
REMARK   45  A    between atoms: _110  and  _111
REMARK   46  A    between atoms: _110  and  _113
REMARK   47  A    between atoms: _113  and  _114
REMARK   48  A    between atoms: _117  and  _119
REMARK   49  A    between atoms: _119  and  _120
REMARK   50  A    between atoms: _119  and  _122
REMARK   51  A    between atoms: _122  and  _123
REMARK   52  A    between atoms: _126  and  _128
REMARK   53  A    between atoms: _128  and  _129
REMARK   54  A    between atoms: _128  and  _131
REMARK   55  A    between atoms: _131  and  _132
REMARK   56  A    between atoms: _135  and  _137
REMARK   57  A    between atoms: _137  and  _138
REMARK   58  A    between atoms: _137  and  _140
REMARK   59  A    between atoms: _143  and  _145
REMARK   60  A    between atoms: _145  and  _146
REMARK   61  A    between atoms: _145  and  _148
REMARK   62  A    between atoms: _148  and  _149
REMARK   63  A    between atoms: _152  and  _154
REMARK   64  A    between atoms: _154  and  _155
REMARK   65  A    between atoms: _154  and  _157
REMARK   66  A    between atoms: _157  and  _158
REMARK   67  A    between atoms: _160  and  _162
REMARK   68  A    between atoms: _162  and  _163
REMARK   69  A    between atoms: _162  and  _165
REMARK   70  A    between atoms: _165  and  _166
REMARK   71  A    between atoms: _166  and  _167
REMARK   72  A    between atoms: _167  and  _168
REMARK   73  A    between atoms: _177  and  _179
REMARK   74  A    between atoms: _179  and  _180
REMARK   75  A    between atoms: _183  and  _184
REMARK   76  A    between atoms: _189  and  _191
REMARK   77  A    between atoms: _191  and  _192
REMARK   78  A    between atoms: _191  and  _194
REMARK   79  A    between atoms: _194  and  _195
REMARK   80  A    between atoms: _198  and  _200
REMARK   81  A    between atoms: _200  and  _201
REMARK   82  A    between atoms: _200  and  _203
REMARK   83  A    between atoms: _203  and  _204
REMARK   84  A    between atoms: _206  and  _208
REMARK   85  A    between atoms: _208  and  _209
REMARK   86  A    between atoms: _208  and  _211
REMARK   87  A    between atoms: _211  and  _212
REMARK   88  A    between atoms: _212  and  _213
REMARK   89  A    between atoms: _213  and  _214
REMARK   90  A    between atoms: _214  and  _215
REMARK   91  A    between atoms: _219  and  _221
REMARK   92  A    between atoms: _221  and  _222
REMARK   93  A    between atoms: _221  and  _224
REMARK   94  A    between atoms: _224  and  _225
REMARK   95  A    between atoms: _227  and  _229
REMARK   96  A    between atoms: _229  and  _230
REMARK   97  A    between atoms: _229  and  _232
REMARK   98  A    between atoms: _232  and  _233
REMARK   99  A    between atoms: _236  and  _238
REMARK  100  A    between atoms: _238  and  _239
REMARK  101  A    between atoms: _238  and  _241
REMARK  102  A    between atoms: _244  and  _246
REMARK  103  A    between atoms: _246  and  _247
REMARK  104  A    between atoms: _246  and  _249
REMARK  105  A    between atoms: _252  and  _254
REMARK  106  A    between atoms: _254  and  _255
REMARK  107  A    between atoms: _259  and  _260
REMARK  108  A    between atoms: _265  and  _267
REMARK  109  A    between atoms: _267  and  _268
REMARK  110  A    between atoms: _267  and  _270
REMARK  111  A    between atoms: _270  and  _271
REMARK  112  A    between atoms: _271  and  _272
REMARK  113  A    between atoms: _275  and  _277
REMARK  114  A    between atoms: _277  and  _278
REMARK  115  A    between atoms: _277  and  _280
REMARK  116  A    between atoms: _280  and  _281
REMARK  117  A    between atoms: _291  and  _293
REMARK  118  A    between atoms: _293  and  _294
REMARK  119  A    between atoms: _293  and  _296
REMARK  120  A    between atoms: _296  and  _297
REMARK  121  A    between atoms: _297  and  _298
REMARK  122  A    between atoms: _300  and  _302
REMARK  123  A    between atoms: _302  and  _303
REMARK  124  A    between atoms: _302  and  _305
REMARK  125  A    between atoms: _305  and  _306
REMARK  126  A    between atoms: _313  and  _314
REMARK  127  A    between atoms: _319  and  _321
REMARK  128  A    between atoms: _321  and  _322
REMARK  129  A    between atoms: _325  and  _327
REMARK  130  A    between atoms: _327  and  _328
REMARK  131  A    between atoms: _327  and  _330
REMARK  132  A    between atoms: _330  and  _331
REMARK  133  A    between atoms: _334  and  _336
REMARK  134  A    between atoms: _336  and  _337
REMARK  135  A    between atoms: _339  and  _341
REMARK  136  A    between atoms: _341  and  _342
REMARK  137  A    between atoms: _341  and  _344
REMARK  138  A    between atoms: _344  and  _345
REMARK  139  A    between atoms: _348  and  _350
REMARK  140  A    between atoms: _350  and  _351
REMARK  141  A    between atoms: _353  and  _355
REMARK  142  A    between atoms: _355  and  _356
REMARK  143  A    between atoms: _355  and  _358
REMARK  144  A    between atoms: _358  and  _359
REMARK  145  A    between atoms: _364  and  _366
REMARK  146  A    between atoms: _366  and  _367
REMARK  147  A    between atoms: _366  and  _369
REMARK  148  A    between atoms: _369  and  _370
REMARK  149  A    between atoms: _373  and  _375
REMARK  150  A    between atoms: _375  and  _376
REMARK  151  A    between atoms: _378  and  _380
REMARK  152  A    between atoms: _380  and  _381
REMARK  153  A    between atoms: _380  and  _383
REMARK  154  A    between atoms: _383  and  _384
REMARK  155  A    between atoms: _390  and  _392
REMARK  156  A    between atoms: _392  and  _393
REMARK  157  A    between atoms: _392  and  _395
REMARK  158  A    between atoms: _395  and  _396
REMARK  159  A    between atoms: _396  and  _397
REMARK  160  A    between atoms: _397  and  _398
REMARK  161  A    between atoms: _398  and  _399
REMARK  162  A    between atoms: _403  and  _405
REMARK  163  A    between atoms: _405  and  _406
REMARK  164  A    between atoms: _405  and  _408
REMARK  165  A    between atoms: _408  and  _409
REMARK  166  A    between atoms: _415  and  _417
REMARK  167  A    between atoms: _417  and  _418
REMARK  168  A    between atoms: _417  and  _420
REMARK  169  A    between atoms: _420  and  _421
REMARK  170  A    between atoms: _424  and  _426
REMARK  171  A    between atoms: _426  and  _427
REMARK  172  A    between atoms: _426  and  _429
REMARK  173  A    between atoms: _429  and  _430
REMARK  174  A    between atoms: _433  and  _435
REMARK  175  A    between atoms: _435  and  _436
REMARK  176  A    between atoms: _435  and  _438
REMARK  177  A    between atoms: _438  and  _439
REMARK  178  A    between atoms: _445  and  _446
REMARK  179  A    between atoms: _451  and  _453
REMARK  180  A    between atoms: _453  and  _454
REMARK  181  A    between atoms: _453  and  _456
REMARK  182  A    between atoms: _456  and  _457
REMARK  183  A    between atoms: _459  and  _461
REMARK  184  A    between atoms: _461  and  _462
REMARK  185  A    between atoms: _461  and  _464
REMARK  186  A    between atoms: _464  and  _465
REMARK  187  A    between atoms: _468  and  _470
REMARK  188  A    between atoms: _470  and  _471
REMARK  189  A    between atoms: _470  and  _473
REMARK  190  A    between atoms: _473  and  _474
REMARK  191  A    between atoms: _479  and  _481
REMARK  192  A    between atoms: _481  and  _482
REMARK  193  A    between atoms: _481  and  _484
REMARK  194  A    between atoms: _484  and  _485
REMARK  195  A    between atoms: _485  and  _486
REMARK  196  A    between atoms: _489  and  _491
REMARK  197  A    between atoms: _491  and  _492
REMARK  198  A    between atoms: _491  and  _494
REMARK  199  A    between atoms: _494  and  _495
REMARK  200  A    between atoms: _500  and  _502
REMARK  201  A    between atoms: _502  and  _503
REMARK  202  A    between atoms: _502  and  _505
REMARK  203  A    between atoms: _505  and  _506
REMARK  204  A    between atoms: _509  and  _511
REMARK  205  A    between atoms: _511  and  _512
REMARK  206  A    between atoms: _511  and  _514
REMARK  207  A    between atoms: _514  and  _515
REMARK                            x       y       z     vdW  Elec       q    Type
REMARK                         _______ _______ _______ _____ _____    ______ ____
ROOT
ATOM      1  O   HOH     1     -21.606  13.320 -18.592  0.00  0.00    +0.000 OA
ENDROOT
TORSDOF 0
REMARK  Name = ../refined-set-2016/3q71/3q71_pocket.pdb
REMARK  207 active torsions:
REMARK  status: ('A' for Active; 'I' for Inactive)
REMARK    1  A    between atoms: _1  and  _3
REMARK    2  A    between atoms: _3  and  _4
REMARK    3  A    between atoms: _3  and  _6
REMARK    4  A    between atoms: _9  and  _11
REMARK    5  A    between atoms: _11  and  _12
REMARK    6  A    between atoms: _11  and  _14
REMARK    7  A    between atoms: _14  and  _15
REMARK    8  A    between atoms: _15  and  _16
REMARK    9  A    between atoms: _16  and  _17
REMARK   10  A    between atoms: _17  and  _18
REMARK   11  A    between atoms: _22  and  _24
REMARK   12  A    between atoms: _24  and  _25
REMARK   13  A    between atoms: _24  and  _27
REMARK   14  A    between atoms: _27  and  _28
REMARK   15  A    between atoms: _28  and  _29
REMARK   16  A    between atoms: _32  and  _34
REMARK   17  A    between atoms: _34  and  _35
REMARK   18  A    between atoms: _37  and  _39
REMARK   19  A    between atoms: _39  and  _40
REMARK   20  A    between atoms: _39  and  _42
REMARK   21  A    between atoms: _45  and  _47
REMARK   22  A    between atoms: _47  and  _48
REMARK   23  A    between atoms: _47  and  _50
REMARK   24  A    between atoms: _50  and  _51
REMARK   25  A    between atoms: _51  and  _52
REMARK   26  A    between atoms: _57  and  _59
REMARK   27  A    between atoms: _59  and  _60
REMARK   28  A    between atoms: _59  and  _62
REMARK   29  A    between atoms: _62  and  _63
REMARK   30  A    between atoms: _68  and  _70
REMARK   31  A    between atoms: _70  and  _71
REMARK   32  A    between atoms: _74  and  _76
REMARK   33  A    between atoms: _76  and  _77
REMARK   34  A    between atoms: _76  and  _79
REMARK   35  A    between atoms: _79  and  _80
REMARK   36  A    between atoms: _85  and  _87
REMARK   37  A    between atoms: _87  and  _88
REMARK   38  A    between atoms: _87  and  _90
REMARK   39  A    between atoms: _90  and  _91
REMARK   40  A    between atoms: _93  and  _95
REMARK   41  A    between atoms: _95  and  _96
REMARK   42  A    between atoms: _95  and  _98
REMARK   43  A    between atoms: _102  and  _103
REMARK   44  A    between atoms: _108  and  _110
REMARK   45  A    between atoms: _110  and  _111
REMARK   46  A    between atoms: _110  and  _113
REMARK   47  A    between atoms: _113  and  _114
REMARK   48  A    between atoms: _117  and  _119
REMARK   49  A    between atoms: _119  and  _120
REMARK   50  A    between atoms: _119  and  _122
REMARK   51  A    between atoms: _122  and  _123
REMARK   52  A    between atoms: _126  and  _128
REMARK   53  A    between atoms: _128  and  _129
REMARK   54  A    between atoms: _128  and  _131
REMARK   55  A    between atoms: _131  and  _132
REMARK   56  A    between atoms: _135  and  _137
REMARK   57  A    between atoms: _137  and  _138
REMARK   58  A    between atoms: _137  and  _140
REMARK   59  A    between atoms: _143  and  _145
REMARK   60  A    between atoms: _145  and  _146
REMARK   61  A    between atoms: _145  and  _148
REMARK   62  A    between atoms: _148  and  _149
REMARK   63  A    between atoms: _152  and  _154
REMARK   64  A    between atoms: _154  and  _155
REMARK   65  A    between atoms: _154  and  _157
REMARK   66  A    between atoms: _157  and  _158
REMARK   67  A    between atoms: _160  and  _162
REMARK   68  A    between atoms: _162  and  _163
REMARK   69  A    between atoms: _162  and  _165
REMARK   70  A    between atoms: _165  and  _166
REMARK   71  A    between atoms: _166  and  _167
REMARK   72  A    between atoms: _167  and  _168
REMARK   73  A    between atoms: _177  and  _179
REMARK   74  A    between atoms: _179  and  _180
REMARK   75  A    between atoms: _183  and  _184
REMARK   76  A    between atoms: _189  and  _191
REMARK   77  A    between atoms: _191  and  _192
REMARK   78  A    between atoms: _191  and  _194
REMARK   79  A    between atoms: _194  and  _195
REMARK   80  A    between atoms: _198  and  _200
REMARK   81  A    between atoms: _200  and  _201
REMARK   82  A    between atoms: _200  and  _203
REMARK   83  A    between atoms: _203  and  _204
REMARK   84  A    between atoms: _206  and  _208
REMARK   85  A    between atoms: _208  and  _209
REMARK   86  A    between atoms: _208  and  _211
REMARK   87  A    between atoms: _211  and  _212
REMARK   88  A    between atoms: _212  and  _213
REMARK   89  A    between atoms: _213  and  _214
REMARK   90  A    between atoms: _214  and  _215
REMARK   91  A    between atoms: _219  and  _221
REMARK   92  A    between atoms: _221  and  _222
REMARK   93  A    between atoms: _221  and  _224
REMARK   94  A    between atoms: _224  and  _225
REMARK   95  A    between atoms: _227  and  _229
REMARK   96  A    between atoms: _229  and  _230
REMARK   97  A    between atoms: _229  and  _232
REMARK   98  A    between atoms: _232  and  _233
REMARK   99  A    between atoms: _236  and  _238
REMARK  100  A    between atoms: _238  and  _239
REMARK  101  A    between atoms: _238  and  _241
REMARK  102  A    between atoms: _244  and  _246
REMARK  103  A    between atoms: _246  and  _247
REMARK  104  A    between atoms: _246  and  _249
REMARK  105  A    between atoms: _252  and  _254
REMARK  106  A    between atoms: _254  and  _255
REMARK  107  A    between atoms: _259  and  _260
REMARK  108  A    between atoms: _265  and  _267
REMARK  109  A    between atoms: _267  and  _268
REMARK  110  A    between atoms: _267  and  _270
REMARK  111  A    between atoms: _270  and  _271
REMARK  112  A    between atoms: _271  and  _272
REMARK  113  A    between atoms: _275  and  _277
REMARK  114  A    between atoms: _277  and  _278
REMARK  115  A    between atoms: _277  and  _280
REMARK  116  A    between atoms: _280  and  _281
REMARK  117  A    between atoms: _291  and  _293
REMARK  118  A    between atoms: _293  and  _294
REMARK  119  A    between atoms: _293  and  _296
REMARK  120  A    between atoms: _296  and  _297
REMARK  121  A    between atoms: _297  and  _298
REMARK  122  A    between atoms: _300  and  _302
REMARK  123  A    between atoms: _302  and  _303
REMARK  124  A    between atoms: _302  and  _305
REMARK  125  A    between atoms: _305  and  _306
REMARK  126  A    between atoms: _313  and  _314
REMARK  127  A    between atoms: _319  and  _321
REMARK  128  A    between atoms: _321  and  _322
REMARK  129  A    between atoms: _325  and  _327
REMARK  130  A    between atoms: _327  and  _328
REMARK  131  A    between atoms: _327  and  _330
REMARK  132  A    between atoms: _330  and  _331
REMARK  133  A    between atoms: _334  and  _336
REMARK  134  A    between atoms: _336  and  _337
REMARK  135  A    between atoms: _339  and  _341
REMARK  136  A    between atoms: _341  and  _342
REMARK  137  A    between atoms: _341  and  _344
REMARK  138  A    between atoms: _344  and  _345
REMARK  139  A    between atoms: _348  and  _350
REMARK  140  A    between atoms: _350  and  _351
REMARK  141  A    between atoms: _353  and  _355
REMARK  142  A    between atoms: _355  and  _356
REMARK  143  A    between atoms: _355  and  _358
REMARK  144  A    between atoms: _358  and  _359
REMARK  145  A    between atoms: _364  and  _366
REMARK  146  A    between atoms: _366  and  _367
REMARK  147  A    between atoms: _366  and  _369
REMARK  148  A    between atoms: _369  and  _370
REMARK  149  A    between atoms: _373  and  _375
REMARK  150  A    between atoms: _375  and  _376
REMARK  151  A    between atoms: _378  and  _380
REMARK  152  A    between atoms: _380  and  _381
REMARK  153  A    between atoms: _380  and  _383
REMARK  154  A    between atoms: _383  and  _384
REMARK  155  A    between atoms: _390  and  _392
REMARK  156  A    between atoms: _392  and  _393
REMARK  157  A    between atoms: _392  and  _395
REMARK  158  A    between atoms: _395  and  _396
REMARK  159  A    between atoms: _396  and  _397
REMARK  160  A    between atoms: _397  and  _398
REMARK  161  A    between atoms: _398  and  _399
REMARK  162  A    between atoms: _403  and  _405
REMARK  163  A    between atoms: _405  and  _406
REMARK  164  A    between atoms: _405  and  _408
REMARK  165  A    between atoms: _408  and  _409
REMARK  166  A    between atoms: _415  and  _417
REMARK  167  A    between atoms: _417  and  _418
REMARK  168  A    between atoms: _417  and  _420
REMARK  169  A    between atoms: _420  and  _421
REMARK  170  A    between atoms: _424  and  _426
REMARK  171  A    between atoms: _426  and  _427
REMARK  172  A    between atoms: _426  and  _429
REMARK  173  A    between atoms: _429  and  _430
REMARK  174  A    between atoms: _433  and  _435
REMARK  175  A    between atoms: _435  and  _436
REMARK  176  A    between atoms: _435  and  _438
REMARK  177  A    between atoms: _438  and  _439
REMARK  178  A    between atoms: _445  and  _446
REMARK  179  A    between atoms: _451  and  _453
REMARK  180  A    between atoms: _453  and  _454
REMARK  181  A    between atoms: _453  and  _456
REMARK  182  A    between atoms: _456  and  _457
REMARK  183  A    between atoms: _459  and  _461
REMARK  184  A    between atoms: _461  and  _462
REMARK  185  A    between atoms: _461  and  _464
REMARK  186  A    between atoms: _464  and  _465
REMARK  187  A    between atoms: _468  and  _470
REMARK  188  A    between atoms: _470  and  _471
REMARK  189  A    between atoms: _470  and  _473
REMARK  190  A    between atoms: _473  and  _474
REMARK  191  A    between atoms: _479  and  _481
REMARK  192  A    between atoms: _481  and  _482
REMARK  193  A    between atoms: _481  and  _484
REMARK  194  A    between atoms: _484  and  _485
REMARK  195  A    between atoms: _485  and  _486
REMARK  196  A    between atoms: _489  and  _491
REMARK  197  A    between atoms: _491  and  _492
REMARK  198  A    between atoms: _491  and  _494
REMARK  199  A    between atoms: _494  and  _495
REMARK  200  A    between atoms: _500  and  _502
REMARK  201  A    between atoms: _502  and  _503
REMARK  202  A    between atoms: _502  and  _505
REMARK  203  A    between atoms: _505  and  _506
REMARK  204  A    between atoms: _509  and  _511
REMARK  205  A    between atoms: _511  and  _512
REMARK  206  A    between atoms: _511  and  _514
REMARK  207  A    between atoms: _514  and  _515
REMARK                            x       y       z     vdW  Elec       q    Type
REMARK                         _______ _______ _______ _____ _____    ______ ____
ROOT
ATOM      1  O   HOH     1     -18.578  17.022 -24.455  0.00  0.00    +0.000 OA
ENDROOT
TORSDOF 0
REMARK  Name = ../refined-set-2016/3q71/3q71_pocket.pdb
REMARK  207 active torsions:
REMARK  status: ('A' for Active; 'I' for Inactive)
REMARK    1  A    between atoms: _1  and  _3
REMARK    2  A    between atoms: _3  and  _4
REMARK    3  A    between atoms: _3  and  _6
REMARK    4  A    between atoms: _9  and  _11
REMARK    5  A    between atoms: _11  and  _12
REMARK    6  A    between atoms: _11  and  _14
REMARK    7  A    between atoms: _14  and  _15
REMARK    8  A    between atoms: _15  and  _16
REMARK    9  A    between atoms: _16  and  _17
REMARK   10  A    between atoms: _17  and  _18
REMARK   11  A    between atoms: _22  and  _24
REMARK   12  A    between atoms: _24  and  _25
REMARK   13  A    between atoms: _24  and  _27
REMARK   14  A    between atoms: _27  and  _28
REMARK   15  A    between atoms: _28  and  _29
REMARK   16  A    between atoms: _32  and  _34
REMARK   17  A    between atoms: _34  and  _35
REMARK   18  A    between atoms: _37  and  _39
REMARK   19  A    between atoms: _39  and  _40
REMARK   20  A    between atoms: _39  and  _42
REMARK   21  A    between atoms: _45  and  _47
REMARK   22  A    between atoms: _47  and  _48
REMARK   23  A    between atoms: _47  and  _50
REMARK   24  A    between atoms: _50  and  _51
REMARK   25  A    between atoms: _51  and  _52
REMARK   26  A    between atoms: _57  and  _59
REMARK   27  A    between atoms: _59  and  _60
REMARK   28  A    between atoms: _59  and  _62
REMARK   29  A    between atoms: _62  and  _63
REMARK   30  A    between atoms: _68  and  _70
REMARK   31  A    between atoms: _70  and  _71
REMARK   32  A    between atoms: _74  and  _76
REMARK   33  A    between atoms: _76  and  _77
REMARK   34  A    between atoms: _76  and  _79
REMARK   35  A    between atoms: _79  and  _80
REMARK   36  A    between atoms: _85  and  _87
REMARK   37  A    between atoms: _87  and  _88
REMARK   38  A    between atoms: _87  and  _90
REMARK   39  A    between atoms: _90  and  _91
REMARK   40  A    between atoms: _93  and  _95
REMARK   41  A    between atoms: _95  and  _96
REMARK   42  A    between atoms: _95  and  _98
REMARK   43  A    between atoms: _102  and  _103
REMARK   44  A    between atoms: _108  and  _110
REMARK   45  A    between atoms: _110  and  _111
REMARK   46  A    between atoms: _110  and  _113
REMARK   47  A    between atoms: _113  and  _114
REMARK   48  A    between atoms: _117  and  _119
REMARK   49  A    between atoms: _119  and  _120
REMARK   50  A    between atoms: _119  and  _122
REMARK   51  A    between atoms: _122  and  _123
REMARK   52  A    between atoms: _126  and  _128
REMARK   53  A    between atoms: _128  and  _129
REMARK   54  A    between atoms: _128  and  _131
REMARK   55  A    between atoms: _131  and  _132
REMARK   56  A    between atoms: _135  and  _137
REMARK   57  A    between atoms: _137  and  _138
REMARK   58  A    between atoms: _137  and  _140
REMARK   59  A    between atoms: _143  and  _145
REMARK   60  A    between atoms: _145  and  _146
REMARK   61  A    between atoms: _145  and  _148
REMARK   62  A    between atoms: _148  and  _149
REMARK   63  A    between atoms: _152  and  _154
REMARK   64  A    between atoms: _154  and  _155
REMARK   65  A    between atoms: _154  and  _157
REMARK   66  A    between atoms: _157  and  _158
REMARK   67  A    between atoms: _160  and  _162
REMARK   68  A    between atoms: _162  and  _163
REMARK   69  A    between atoms: _162  and  _165
REMARK   70  A    between atoms: _165  and  _166
REMARK   71  A    between atoms: _166  and  _167
REMARK   72  A    between atoms: _167  and  _168
REMARK   73  A    between atoms: _177  and  _179
REMARK   74  A    between atoms: _179  and  _180
REMARK   75  A    between atoms: _183  and  _184
REMARK   76  A    between atoms: _189  and  _191
REMARK   77  A    between atoms: _191  and  _192
REMARK   78  A    between atoms: _191  and  _194
REMARK   79  A    between atoms: _194  and  _195
REMARK   80  A    between atoms: _198  and  _200
REMARK   81  A    between atoms: _200  and  _201
REMARK   82  A    between atoms: _200  and  _203
REMARK   83  A    between atoms: _203  and  _204
REMARK   84  A    between atoms: _206  and  _208
REMARK   85  A    between atoms: _208  and  _209
REMARK   86  A    between atoms: _208  and  _211
REMARK   87  A    between atoms: _211  and  _212
REMARK   88  A    between atoms: _212  and  _213
REMARK   89  A    between atoms: _213  and  _214
REMARK   90  A    between atoms: _214  and  _215
REMARK   91  A    between atoms: _219  and  _221
REMARK   92  A    between atoms: _221  and  _222
REMARK   93  A    between atoms: _221  and  _224
REMARK   94  A    between atoms: _224  and  _225
REMARK   95  A    between atoms: _227  and  _229
REMARK   96  A    between atoms: _229  and  _230
REMARK   97  A    between atoms: _229  and  _232
REMARK   98  A    between atoms: _232  and  _233
REMARK   99  A    between atoms: _236  and  _238
REMARK  100  A    between atoms: _238  and  _239
REMARK  101  A    between atoms: _238  and  _241
REMARK  102  A    between atoms: _244  and  _246
REMARK  103  A    between atoms: _246  and  _247
REMARK  104  A    between atoms: _246  and  _249
REMARK  105  A    between atoms: _252  and  _254
REMARK  106  A    between atoms: _254  and  _255
REMARK  107  A    between atoms: _259  and  _260
REMARK  108  A    between atoms: _265  and  _267
REMARK  109  A    between atoms: _267  and  _268
REMARK  110  A    between atoms: _267  and  _270
REMARK  111  A    between atoms: _270  and  _271
REMARK  112  A    between atoms: _271  and  _272
REMARK  113  A    between atoms: _275  and  _277
REMARK  114  A    between atoms: _277  and  _278
REMARK  115  A    between atoms: _277  and  _280
REMARK  116  A    between atoms: _280  and  _281
REMARK  117  A    between atoms: _291  and  _293
REMARK  118  A    between atoms: _293  and  _294
REMARK  119  A    between atoms: _293  and  _296
REMARK  120  A    between atoms: _296  and  _297
REMARK  121  A    between atoms: _297  and  _298
REMARK  122  A    between atoms: _300  and  _302
REMARK  123  A    between atoms: _302  and  _303
REMARK  124  A    between atoms: _302  and  _305
REMARK  125  A    between atoms: _305  and  _306
REMARK  126  A    between atoms: _313  and  _314
REMARK  127  A    between atoms: _319  and  _321
REMARK  128  A    between atoms: _321  and  _322
REMARK  129  A    between atoms: _325  and  _327
REMARK  130  A    between atoms: _327  and  _328
REMARK  131  A    between atoms: _327  and  _330
REMARK  132  A    between atoms: _330  and  _331
REMARK  133  A    between atoms: _334  and  _336
REMARK  134  A    between atoms: _336  and  _337
REMARK  135  A    between atoms: _339  and  _341
REMARK  136  A    between atoms: _341  and  _342
REMARK  137  A    between atoms: _341  and  _344
REMARK  138  A    between atoms: _344  and  _345
REMARK  139  A    between atoms: _348  and  _350
REMARK  140  A    between atoms: _350  and  _351
REMARK  141  A    between atoms: _353  and  _355
REMARK  142  A    between atoms: _355  and  _356
REMARK  143  A    between atoms: _355  and  _358
REMARK  144  A    between atoms: _358  and  _359
REMARK  145  A    between atoms: _364  and  _366
REMARK  146  A    between atoms: _366  and  _367
REMARK  147  A    between atoms: _366  and  _369
REMARK  148  A    between atoms: _369  and  _370
REMARK  149  A    between atoms: _373  and  _375
REMARK  150  A    between atoms: _375  and  _376
REMARK  151  A    between atoms: _378  and  _380
REMARK  152  A    between atoms: _380  and  _381
REMARK  153  A    between atoms: _380  and  _383
REMARK  154  A    between atoms: _383  and  _384
REMARK  155  A    between atoms: _390  and  _392
REMARK  156  A    between atoms: _392  and  _393
REMARK  157  A    between atoms: _392  and  _395
REMARK  158  A    between atoms: _395  and  _396
REMARK  159  A    between atoms: _396  and  _397
REMARK  160  A    between atoms: _397  and  _398
REMARK  161  A    between atoms: _398  and  _399
REMARK  162  A    between atoms: _403  and  _405
REMARK  163  A    between atoms: _405  and  _406
REMARK  164  A    between atoms: _405  and  _408
REMARK  165  A    between atoms: _408  and  _409
REMARK  166  A    between atoms: _415  and  _417
REMARK  167  A    between atoms: _417  and  _418
REMARK  168  A    between atoms: _417  and  _420
REMARK  169  A    between atoms: _420  and  _421
REMARK  170  A    between atoms: _424  and  _426
REMARK  171  A    between atoms: _426  and  _427
REMARK  172  A    between atoms: _426  and  _429
REMARK  173  A    between atoms: _429  and  _430
REMARK  174  A    between atoms: _433  and  _435
REMARK  175  A    between atoms: _435  and  _436
REMARK  176  A    between atoms: _435  and  _438
REMARK  177  A    between atoms: _438  and  _439
REMARK  178  A    between atoms: _445  and  _446
REMARK  179  A    between atoms: _451  and  _453
REMARK  180  A    between atoms: _453  and  _454
REMARK  181  A    between atoms: _453  and  _456
REMARK  182  A    between atoms: _456  and  _457
REMARK  183  A    between atoms: _459  and  _461
REMARK  184  A    between atoms: _461  and  _462
REMARK  185  A    between atoms: _461  and  _464
REMARK  186  A    between atoms: _464  and  _465
REMARK  187  A    between atoms: _468  and  _470
REMARK  188  A    between atoms: _470  and  _471
REMARK  189  A    between atoms: _470  and  _473
REMARK  190  A    between atoms: _473  and  _474
REMARK  191  A    between atoms: _479  and  _481
REMARK  192  A    between atoms: _481  and  _482
REMARK  193  A    between atoms: _481  and  _484
REMARK  194  A    between atoms: _484  and  _485
REMARK  195  A    between atoms: _485  and  _486
REMARK  196  A    between atoms: _489  and  _491
REMARK  197  A    between atoms: _491  and  _492
REMARK  198  A    between atoms: _491  and  _494
REMARK  199  A    between atoms: _494  and  _495
REMARK  200  A    between atoms: _500  and  _502
REMARK  201  A    between atoms: _502  and  _503
REMARK  202  A    between atoms: _502  and  _505
REMARK  203  A    between atoms: _505  and  _506
REMARK  204  A    between atoms: _509  and  _511
REMARK  205  A    between atoms: _511  and  _512
REMARK  206  A    between atoms: _511  and  _514
REMARK  207  A    between atoms: _514  and  _515
REMARK                            x       y       z     vdW  Elec       q    Type
REMARK                         _______ _______ _______ _____ _____    ______ ____
ROOT
ATOM      1  O   HOH     1     -19.436  19.010 -26.892  0.00  0.00    +0.000 OA
ENDROOT
TORSDOF 0
REMARK  Name = ../refined-set-2016/3q71/3q71_pocket.pdb
REMARK  207 active torsions:
REMARK  status: ('A' for Active; 'I' for Inactive)
REMARK    1  A    between atoms: _1  and  _3
REMARK    2  A    between atoms: _3  and  _4
REMARK    3  A    between atoms: _3  and  _6
REMARK    4  A    between atoms: _9  and  _11
REMARK    5  A    between atoms: _11  and  _12
REMARK    6  A    between atoms: _11  and  _14
REMARK    7  A    between atoms: _14  and  _15
REMARK    8  A    between atoms: _15  and  _16
REMARK    9  A    between atoms: _16  and  _17
REMARK   10  A    between atoms: _17  and  _18
REMARK   11  A    between atoms: _22  and  _24
REMARK   12  A    between atoms: _24  and  _25
REMARK   13  A    between atoms: _24  and  _27
REMARK   14  A    between atoms: _27  and  _28
REMARK   15  A    between atoms: _28  and  _29
REMARK   16  A    between atoms: _32  and  _34
REMARK   17  A    between atoms: _34  and  _35
REMARK   18  A    between atoms: _37  and  _39
REMARK   19  A    between atoms: _39  and  _40
REMARK   20  A    between atoms: _39  and  _42
REMARK   21  A    between atoms: _45  and  _47
REMARK   22  A    between atoms: _47  and  _48
REMARK   23  A    between atoms: _47  and  _50
REMARK   24  A    between atoms: _50  and  _51
REMARK   25  A    between atoms: _51  and  _52
REMARK   26  A    between atoms: _57  and  _59
REMARK   27  A    between atoms: _59  and  _60
REMARK   28  A    between atoms: _59  and  _62
REMARK   29  A    between atoms: _62  and  _63
REMARK   30  A    between atoms: _68  and  _70
REMARK   31  A    between atoms: _70  and  _71
REMARK   32  A    between atoms: _74  and  _76
REMARK   33  A    between atoms: _76  and  _77
REMARK   34  A    between atoms: _76  and  _79
REMARK   35  A    between atoms: _79  and  _80
REMARK   36  A    between atoms: _85  and  _87
REMARK   37  A    between atoms: _87  and  _88
REMARK   38  A    between atoms: _87  and  _90
REMARK   39  A    between atoms: _90  and  _91
REMARK   40  A    between atoms: _93  and  _95
REMARK   41  A    between atoms: _95  and  _96
REMARK   42  A    between atoms: _95  and  _98
REMARK   43  A    between atoms: _102  and  _103
REMARK   44  A    between atoms: _108  and  _110
REMARK   45  A    between atoms: _110  and  _111
REMARK   46  A    between atoms: _110  and  _113
REMARK   47  A    between atoms: _113  and  _114
REMARK   48  A    between atoms: _117  and  _119
REMARK   49  A    between atoms: _119  and  _120
REMARK   50  A    between atoms: _119  and  _122
REMARK   51  A    between atoms: _122  and  _123
REMARK   52  A    between atoms: _126  and  _128
REMARK   53  A    between atoms: _128  and  _129
REMARK   54  A    between atoms: _128  and  _131
REMARK   55  A    between atoms: _131  and  _132
REMARK   56  A    between atoms: _135  and  _137
REMARK   57  A    between atoms: _137  and  _138
REMARK   58  A    between atoms: _137  and  _140
REMARK   59  A    between atoms: _143  and  _145
REMARK   60  A    between atoms: _145  and  _146
REMARK   61  A    between atoms: _145  and  _148
REMARK   62  A    between atoms: _148  and  _149
REMARK   63  A    between atoms: _152  and  _154
REMARK   64  A    between atoms: _154  and  _155
REMARK   65  A    between atoms: _154  and  _157
REMARK   66  A    between atoms: _157  and  _158
REMARK   67  A    between atoms: _160  and  _162
REMARK   68  A    between atoms: _162  and  _163
REMARK   69  A    between atoms: _162  and  _165
REMARK   70  A    between atoms: _165  and  _166
REMARK   71  A    between atoms: _166  and  _167
REMARK   72  A    between atoms: _167  and  _168
REMARK   73  A    between atoms: _177  and  _179
REMARK   74  A    between atoms: _179  and  _180
REMARK   75  A    between atoms: _183  and  _184
REMARK   76  A    between atoms: _189  and  _191
REMARK   77  A    between atoms: _191  and  _192
REMARK   78  A    between atoms: _191  and  _194
REMARK   79  A    between atoms: _194  and  _195
REMARK   80  A    between atoms: _198  and  _200
REMARK   81  A    between atoms: _200  and  _201
REMARK   82  A    between atoms: _200  and  _203
REMARK   83  A    between atoms: _203  and  _204
REMARK   84  A    between atoms: _206  and  _208
REMARK   85  A    between atoms: _208  and  _209
REMARK   86  A    between atoms: _208  and  _211
REMARK   87  A    between atoms: _211  and  _212
REMARK   88  A    between atoms: _212  and  _213
REMARK   89  A    between atoms: _213  and  _214
REMARK   90  A    between atoms: _214  and  _215
REMARK   91  A    between atoms: _219  and  _221
REMARK   92  A    between atoms: _221  and  _222
REMARK   93  A    between atoms: _221  and  _224
REMARK   94  A    between atoms: _224  and  _225
REMARK   95  A    between atoms: _227  and  _229
REMARK   96  A    between atoms: _229  and  _230
REMARK   97  A    between atoms: _229  and  _232
REMARK   98  A    between atoms: _232  and  _233
REMARK   99  A    between atoms: _236  and  _238
REMARK  100  A    between atoms: _238  and  _239
REMARK  101  A    between atoms: _238  and  _241
REMARK  102  A    between atoms: _244  and  _246
REMARK  103  A    between atoms: _246  and  _247
REMARK  104  A    between atoms: _246  and  _249
REMARK  105  A    between atoms: _252  and  _254
REMARK  106  A    between atoms: _254  and  _255
REMARK  107  A    between atoms: _259  and  _260
REMARK  108  A    between atoms: _265  and  _267
REMARK  109  A    between atoms: _267  and  _268
REMARK  110  A    between atoms: _267  and  _270
REMARK  111  A    between atoms: _270  and  _271
REMARK  112  A    between atoms: _271  and  _272
REMARK  113  A    between atoms: _275  and  _277
REMARK  114  A    between atoms: _277  and  _278
REMARK  115  A    between atoms: _277  and  _280
REMARK  116  A    between atoms: _280  and  _281
REMARK  117  A    between atoms: _291  and  _293
REMARK  118  A    between atoms: _293  and  _294
REMARK  119  A    between atoms: _293  and  _296
REMARK  120  A    between atoms: _296  and  _297
REMARK  121  A    between atoms: _297  and  _298
REMARK  122  A    between atoms: _300  and  _302
REMARK  123  A    between atoms: _302  and  _303
REMARK  124  A    between atoms: _302  and  _305
REMARK  125  A    between atoms: _305  and  _306
REMARK  126  A    between atoms: _313  and  _314
REMARK  127  A    between atoms: _319  and  _321
REMARK  128  A    between atoms: _321  and  _322
REMARK  129  A    between atoms: _325  and  _327
REMARK  130  A    between atoms: _327  and  _328
REMARK  131  A    between atoms: _327  and  _330
REMARK  132  A    between atoms: _330  and  _331
REMARK  133  A    between atoms: _334  and  _336
REMARK  134  A    between atoms: _336  and  _337
REMARK  135  A    between atoms: _339  and  _341
REMARK  136  A    between atoms: _341  and  _342
REMARK  137  A    between atoms: _341  and  _344
REMARK  138  A    between atoms: _344  and  _345
REMARK  139  A    between atoms: _348  and  _350
REMARK  140  A    between atoms: _350  and  _351
REMARK  141  A    between atoms: _353  and  _355
REMARK  142  A    between atoms: _355  and  _356
REMARK  143  A    between atoms: _355  and  _358
REMARK  144  A    between atoms: _358  and  _359
REMARK  145  A    between atoms: _364  and  _366
REMARK  146  A    between atoms: _366  and  _367
REMARK  147  A    between atoms: _366  and  _369
REMARK  148  A    between atoms: _369  and  _370
REMARK  149  A    between atoms: _373  and  _375
REMARK  150  A    between atoms: _375  and  _376
REMARK  151  A    between atoms: _378  and  _380
REMARK  152  A    between atoms: _380  and  _381
REMARK  153  A    between atoms: _380  and  _383
REMARK  154  A    between atoms: _383  and  _384
REMARK  155  A    between atoms: _390  and  _392
REMARK  156  A    between atoms: _392  and  _393
REMARK  157  A    between atoms: _392  and  _395
REMARK  158  A    between atoms: _395  and  _396
REMARK  159  A    between atoms: _396  and  _397
REMARK  160  A    between atoms: _397  and  _398
REMARK  161  A    between atoms: _398  and  _399
REMARK  162  A    between atoms: _403  and  _405
REMARK  163  A    between atoms: _405  and  _406
REMARK  164  A    between atoms: _405  and  _408
REMARK  165  A    between atoms: _408  and  _409
REMARK  166  A    between atoms: _415  and  _417
REMARK  167  A    between atoms: _417  and  _418
REMARK  168  A    between atoms: _417  and  _420
REMARK  169  A    between atoms: _420  and  _421
REMARK  170  A    between atoms: _424  and  _426
REMARK  171  A    between atoms: _426  and  _427
REMARK  172  A    between atoms: _426  and  _429
REMARK  173  A    between atoms: _429  and  _430
REMARK  174  A    between atoms: _433  and  _435
REMARK  175  A    between atoms: _435  and  _436
REMARK  176  A    between atoms: _435  and  _438
REMARK  177  A    between atoms: _438  and  _439
REMARK  178  A    between atoms: _445  and  _446
REMARK  179  A    between atoms: _451  and  _453
REMARK  180  A    between atoms: _453  and  _454
REMARK  181  A    between atoms: _453  and  _456
REMARK  182  A    between atoms: _456  and  _457
REMARK  183  A    between atoms: _459  and  _461
REMARK  184  A    between atoms: _461  and  _462
REMARK  185  A    between atoms: _461  and  _464
REMARK  186  A    between atoms: _464  and  _465
REMARK  187  A    between atoms: _468  and  _470
REMARK  188  A    between atoms: _470  and  _471
REMARK  189  A    between atoms: _470  and  _473
REMARK  190  A    between atoms: _473  and  _474
REMARK  191  A    between atoms: _479  and  _481
REMARK  192  A    between atoms: _481  and  _482
REMARK  193  A    between atoms: _481  and  _484
REMARK  194  A    between atoms: _484  and  _485
REMARK  195  A    between atoms: _485  and  _486
REMARK  196  A    between atoms: _489  and  _491
REMARK  197  A    between atoms: _491  and  _492
REMARK  198  A    between atoms: _491  and  _494
REMARK  199  A    between atoms: _494  and  _495
REMARK  200  A    between atoms: _500  and  _502
REMARK  201  A    between atoms: _502  and  _503
REMARK  202  A    between atoms: _502  and  _505
REMARK  203  A    between atoms: _505  and  _506
REMARK  204  A    between atoms: _509  and  _511
REMARK  205  A    between atoms: _511  and  _512
REMARK  206  A    between atoms: _511  and  _514
REMARK  207  A    between atoms: _514  and  _515
REMARK                            x       y       z     vdW  Elec       q    Type
REMARK                         _______ _______ _______ _____ _____    ______ ____
ROOT
ATOM      1  O   HOH     1     -19.382   9.705 -17.876  0.00  0.00    +0.000 OA
ENDROOT
TORSDOF 0
REMARK  Name = ../refined-set-2016/3q71/3q71_pocket.pdb
REMARK  207 active torsions:
REMARK  status: ('A' for Active; 'I' for Inactive)
REMARK    1  A    between atoms: _1  and  _3
REMARK    2  A    between atoms: _3  and  _4
REMARK    3  A    between atoms: _3  and  _6
REMARK    4  A    between atoms: _9  and  _11
REMARK    5  A    between atoms: _11  and  _12
REMARK    6  A    between atoms: _11  and  _14
REMARK    7  A    between atoms: _14  and  _15
REMARK    8  A    between atoms: _15  and  _16
REMARK    9  A    between atoms: _16  and  _17
REMARK   10  A    between atoms: _17  and  _18
REMARK   11  A    between atoms: _22  and  _24
REMARK   12  A    between atoms: _24  and  _25
REMARK   13  A    between atoms: _24  and  _27
REMARK   14  A    between atoms: _27  and  _28
REMARK   15  A    between atoms: _28  and  _29
REMARK   16  A    between atoms: _32  and  _34
REMARK   17  A    between atoms: _34  and  _35
REMARK   18  A    between atoms: _37  and  _39
REMARK   19  A    between atoms: _39  and  _40
REMARK   20  A    between atoms: _39  and  _42
REMARK   21  A    between atoms: _45  and  _47
REMARK   22  A    between atoms: _47  and  _48
REMARK   23  A    between atoms: _47  and  _50
REMARK   24  A    between atoms: _50  and  _51
REMARK   25  A    between atoms: _51  and  _52
REMARK   26  A    between atoms: _57  and  _59
REMARK   27  A    between atoms: _59  and  _60
REMARK   28  A    between atoms: _59  and  _62
REMARK   29  A    between atoms: _62  and  _63
REMARK   30  A    between atoms: _68  and  _70
REMARK   31  A    between atoms: _70  and  _71
REMARK   32  A    between atoms: _74  and  _76
REMARK   33  A    between atoms: _76  and  _77
REMARK   34  A    between atoms: _76  and  _79
REMARK   35  A    between atoms: _79  and  _80
REMARK   36  A    between atoms: _85  and  _87
REMARK   37  A    between atoms: _87  and  _88
REMARK   38  A    between atoms: _87  and  _90
REMARK   39  A    between atoms: _90  and  _91
REMARK   40  A    between atoms: _93  and  _95
REMARK   41  A    between atoms: _95  and  _96
REMARK   42  A    between atoms: _95  and  _98
REMARK   43  A    between atoms: _102  and  _103
REMARK   44  A    between atoms: _108  and  _110
REMARK   45  A    between atoms: _110  and  _111
REMARK   46  A    between atoms: _110  and  _113
REMARK   47  A    between atoms: _113  and  _114
REMARK   48  A    between atoms: _117  and  _119
REMARK   49  A    between atoms: _119  and  _120
REMARK   50  A    between atoms: _119  and  _122
REMARK   51  A    between atoms: _122  and  _123
REMARK   52  A    between atoms: _126  and  _128
REMARK   53  A    between atoms: _128  and  _129
REMARK   54  A    between atoms: _128  and  _131
REMARK   55  A    between atoms: _131  and  _132
REMARK   56  A    between atoms: _135  and  _137
REMARK   57  A    between atoms: _137  and  _138
REMARK   58  A    between atoms: _137  and  _140
REMARK   59  A    between atoms: _143  and  _145
REMARK   60  A    between atoms: _145  and  _146
REMARK   61  A    between atoms: _145  and  _148
REMARK   62  A    between atoms: _148  and  _149
REMARK   63  A    between atoms: _152  and  _154
REMARK   64  A    between atoms: _154  and  _155
REMARK   65  A    between atoms: _154  and  _157
REMARK   66  A    between atoms: _157  and  _158
REMARK   67  A    between atoms: _160  and  _162
REMARK   68  A    between atoms: _162  and  _163
REMARK   69  A    between atoms: _162  and  _165
REMARK   70  A    between atoms: _165  and  _166
REMARK   71  A    between atoms: _166  and  _167
REMARK   72  A    between atoms: _167  and  _168
REMARK   73  A    between atoms: _177  and  _179
REMARK   74  A    between atoms: _179  and  _180
REMARK   75  A    between atoms: _183  and  _184
REMARK   76  A    between atoms: _189  and  _191
REMARK   77  A    between atoms: _191  and  _192
REMARK   78  A    between atoms: _191  and  _194
REMARK   79  A    between atoms: _194  and  _195
REMARK   80  A    between atoms: _198  and  _200
REMARK   81  A    between atoms: _200  and  _201
REMARK   82  A    between atoms: _200  and  _203
REMARK   83  A    between atoms: _203  and  _204
REMARK   84  A    between atoms: _206  and  _208
REMARK   85  A    between atoms: _208  and  _209
REMARK   86  A    between atoms: _208  and  _211
REMARK   87  A    between atoms: _211  and  _212
REMARK   88  A    between atoms: _212  and  _213
REMARK   89  A    between atoms: _213  and  _214
REMARK   90  A    between atoms: _214  and  _215
REMARK   91  A    between atoms: _219  and  _221
REMARK   92  A    between atoms: _221  and  _222
REMARK   93  A    between atoms: _221  and  _224
REMARK   94  A    between atoms: _224  and  _225
REMARK   95  A    between atoms: _227  and  _229
REMARK   96  A    between atoms: _229  and  _230
REMARK   97  A    between atoms: _229  and  _232
REMARK   98  A    between atoms: _232  and  _233
REMARK   99  A    between atoms: _236  and  _238
REMARK  100  A    between atoms: _238  and  _239
REMARK  101  A    between atoms: _238  and  _241
REMARK  102  A    between atoms: _244  and  _246
REMARK  103  A    between atoms: _246  and  _247
REMARK  104  A    between atoms: _246  and  _249
REMARK  105  A    between atoms: _252  and  _254
REMARK  106  A    between atoms: _254  and  _255
REMARK  107  A    between atoms: _259  and  _260
REMARK  108  A    between atoms: _265  and  _267
REMARK  109  A    between atoms: _267  and  _268
REMARK  110  A    between atoms: _267  and  _270
REMARK  111  A    between atoms: _270  and  _271
REMARK  112  A    between atoms: _271  and  _272
REMARK  113  A    between atoms: _275  and  _277
REMARK  114  A    between atoms: _277  and  _278
REMARK  115  A    between atoms: _277  and  _280
REMARK  116  A    between atoms: _280  and  _281
REMARK  117  A    between atoms: _291  and  _293
REMARK  118  A    between atoms: _293  and  _294
REMARK  119  A    between atoms: _293  and  _296
REMARK  120  A    between atoms: _296  and  _297
REMARK  121  A    between atoms: _297  and  _298
REMARK  122  A    between atoms: _300  and  _302
REMARK  123  A    between atoms: _302  and  _303
REMARK  124  A    between atoms: _302  and  _305
REMARK  125  A    between atoms: _305  and  _306
REMARK  126  A    between atoms: _313  and  _314
REMARK  127  A    between atoms: _319  and  _321
REMARK  128  A    between atoms: _321  and  _322
REMARK  129  A    between atoms: _325  and  _327
REMARK  130  A    between atoms: _327  and  _328
REMARK  131  A    between atoms: _327  and  _330
REMARK  132  A    between atoms: _330  and  _331
REMARK  133  A    between atoms: _334  and  _336
REMARK  134  A    between atoms: _336  and  _337
REMARK  135  A    between atoms: _339  and  _341
REMARK  136  A    between atoms: _341  and  _342
REMARK  137  A    between atoms: _341  and  _344
REMARK  138  A    between atoms: _344  and  _345
REMARK  139  A    between atoms: _348  and  _350
REMARK  140  A    between atoms: _350  and  _351
REMARK  141  A    between atoms: _353  and  _355
REMARK  142  A    between atoms: _355  and  _356
REMARK  143  A    between atoms: _355  and  _358
REMARK  144  A    between atoms: _358  and  _359
REMARK  145  A    between atoms: _364  and  _366
REMARK  146  A    between atoms: _366  and  _367
REMARK  147  A    between atoms: _366  and  _369
REMARK  148  A    between atoms: _369  and  _370
REMARK  149  A    between atoms: _373  and  _375
REMARK  150  A    between atoms: _375  and  _376
REMARK  151  A    between atoms: _378  and  _380
REMARK  152  A    between atoms: _380  and  _381
REMARK  153  A    between atoms: _380  and  _383
REMARK  154  A    between atoms: _383  and  _384
REMARK  155  A    between atoms: _390  and  _392
REMARK  156  A    between atoms: _392  and  _393
REMARK  157  A    between atoms: _392  and  _395
REMARK  158  A    between atoms: _395  and  _396
REMARK  159  A    between atoms: _396  and  _397
REMARK  160  A    between atoms: _397  and  _398
REMARK  161  A    between atoms: _398  and  _399
REMARK  162  A    between atoms: _403  and  _405
REMARK  163  A    between atoms: _405  and  _406
REMARK  164  A    between atoms: _405  and  _408
REMARK  165  A    between atoms: _408  and  _409
REMARK  166  A    between atoms: _415  and  _417
REMARK  167  A    between atoms: _417  and  _418
REMARK  168  A    between atoms: _417  and  _420
REMARK  169  A    between atoms: _420  and  _421
REMARK  170  A    between atoms: _424  and  _426
REMARK  171  A    between atoms: _426  and  _427
REMARK  172  A    between atoms: _426  and  _429
REMARK  173  A    between atoms: _429  and  _430
REMARK  174  A    between atoms: _433  and  _435
REMARK  175  A    between atoms: _435  and  _436
REMARK  176  A    between atoms: _435  and  _438
REMARK  177  A    between atoms: _438  and  _439
REMARK  178  A    between atoms: _445  and  _446
REMARK  179  A    between atoms: _451  and  _453
REMARK  180  A    between atoms: _453  and  _454
REMARK  181  A    between atoms: _453  and  _456
REMARK  182  A    between atoms: _456  and  _457
REMARK  183  A    between atoms: _459  and  _461
REMARK  184  A    between atoms: _461  and  _462
REMARK  185  A    between atoms: _461  and  _464
REMARK  186  A    between atoms: _464  and  _465
REMARK  187  A    between atoms: _468  and  _470
REMARK  188  A    between atoms: _470  and  _471
REMARK  189  A    between atoms: _470  and  _473
REMARK  190  A    between atoms: _473  and  _474
REMARK  191  A    between atoms: _479  and  _481
REMARK  192  A    between atoms: _481  and  _482
REMARK  193  A    between atoms: _481  and  _484
REMARK  194  A    between atoms: _484  and  _485
REMARK  195  A    between atoms: _485  and  _486
REMARK  196  A    between atoms: _489  and  _491
REMARK  197  A    between atoms: _491  and  _492
REMARK  198  A    between atoms: _491  and  _494
REMARK  199  A    between atoms: _494  and  _495
REMARK  200  A    between atoms: _500  and  _502
REMARK  201  A    between atoms: _502  and  _503
REMARK  202  A    between atoms: _502  and  _505
REMARK  203  A    between atoms: _505  and  _506
REMARK  204  A    between atoms: _509  and  _511
REMARK  205  A    between atoms: _511  and  _512
REMARK  206  A    between atoms: _511  and  _514
REMARK  207  A    between atoms: _514  and  _515
REMARK                            x       y       z     vdW  Elec       q    Type
REMARK                         _______ _______ _______ _____ _____    ______ ____
ROOT
ATOM      1  O   HOH     1     -27.219  28.325 -30.046  0.00  0.00    +0.000 OA
ENDROOT
TORSDOF 0
REMARK  Name = ../refined-set-2016/3q71/3q71_pocket.pdb
REMARK  207 active torsions:
REMARK  status: ('A' for Active; 'I' for Inactive)
REMARK    1  A    between atoms: _1  and  _3
REMARK    2  A    between atoms: _3  and  _4
REMARK    3  A    between atoms: _3  and  _6
REMARK    4  A    between atoms: _9  and  _11
REMARK    5  A    between atoms: _11  and  _12
REMARK    6  A    between atoms: _11  and  _14
REMARK    7  A    between atoms: _14  and  _15
REMARK    8  A    between atoms: _15  and  _16
REMARK    9  A    between atoms: _16  and  _17
REMARK   10  A    between atoms: _17  and  _18
REMARK   11  A    between atoms: _22  and  _24
REMARK   12  A    between atoms: _24  and  _25
REMARK   13  A    between atoms: _24  and  _27
REMARK   14  A    between atoms: _27  and  _28
REMARK   15  A    between atoms: _28  and  _29
REMARK   16  A    between atoms: _32  and  _34
REMARK   17  A    between atoms: _34  and  _35
REMARK   18  A    between atoms: _37  and  _39
REMARK   19  A    between atoms: _39  and  _40
REMARK   20  A    between atoms: _39  and  _42
REMARK   21  A    between atoms: _45  and  _47
REMARK   22  A    between atoms: _47  and  _48
REMARK   23  A    between atoms: _47  and  _50
REMARK   24  A    between atoms: _50  and  _51
REMARK   25  A    between atoms: _51  and  _52
REMARK   26  A    between atoms: _57  and  _59
REMARK   27  A    between atoms: _59  and  _60
REMARK   28  A    between atoms: _59  and  _62
REMARK   29  A    between atoms: _62  and  _63
REMARK   30  A    between atoms: _68  and  _70
REMARK   31  A    between atoms: _70  and  _71
REMARK   32  A    between atoms: _74  and  _76
REMARK   33  A    between atoms: _76  and  _77
REMARK   34  A    between atoms: _76  and  _79
REMARK   35  A    between atoms: _79  and  _80
REMARK   36  A    between atoms: _85  and  _87
REMARK   37  A    between atoms: _87  and  _88
REMARK   38  A    between atoms: _87  and  _90
REMARK   39  A    between atoms: _90  and  _91
REMARK   40  A    between atoms: _93  and  _95
REMARK   41  A    between atoms: _95  and  _96
REMARK   42  A    between atoms: _95  and  _98
REMARK   43  A    between atoms: _102  and  _103
REMARK   44  A    between atoms: _108  and  _110
REMARK   45  A    between atoms: _110  and  _111
REMARK   46  A    between atoms: _110  and  _113
REMARK   47  A    between atoms: _113  and  _114
REMARK   48  A    between atoms: _117  and  _119
REMARK   49  A    between atoms: _119  and  _120
REMARK   50  A    between atoms: _119  and  _122
REMARK   51  A    between atoms: _122  and  _123
REMARK   52  A    between atoms: _126  and  _128
REMARK   53  A    between atoms: _128  and  _129
REMARK   54  A    between atoms: _128  and  _131
REMARK   55  A    between atoms: _131  and  _132
REMARK   56  A    between atoms: _135  and  _137
REMARK   57  A    between atoms: _137  and  _138
REMARK   58  A    between atoms: _137  and  _140
REMARK   59  A    between atoms: _143  and  _145
REMARK   60  A    between atoms: _145  and  _146
REMARK   61  A    between atoms: _145  and  _148
REMARK   62  A    between atoms: _148  and  _149
REMARK   63  A    between atoms: _152  and  _154
REMARK   64  A    between atoms: _154  and  _155
REMARK   65  A    between atoms: _154  and  _157
REMARK   66  A    between atoms: _157  and  _158
REMARK   67  A    between atoms: _160  and  _162
REMARK   68  A    between atoms: _162  and  _163
REMARK   69  A    between atoms: _162  and  _165
REMARK   70  A    between atoms: _165  and  _166
REMARK   71  A    between atoms: _166  and  _167
REMARK   72  A    between atoms: _167  and  _168
REMARK   73  A    between atoms: _177  and  _179
REMARK   74  A    between atoms: _179  and  _180
REMARK   75  A    between atoms: _183  and  _184
REMARK   76  A    between atoms: _189  and  _191
REMARK   77  A    between atoms: _191  and  _192
REMARK   78  A    between atoms: _191  and  _194
REMARK   79  A    between atoms: _194  and  _195
REMARK   80  A    between atoms: _198  and  _200
REMARK   81  A    between atoms: _200  and  _201
REMARK   82  A    between atoms: _200  and  _203
REMARK   83  A    between atoms: _203  and  _204
REMARK   84  A    between atoms: _206  and  _208
REMARK   85  A    between atoms: _208  and  _209
REMARK   86  A    between atoms: _208  and  _211
REMARK   87  A    between atoms: _211  and  _212
REMARK   88  A    between atoms: _212  and  _213
REMARK   89  A    between atoms: _213  and  _214
REMARK   90  A    between atoms: _214  and  _215
REMARK   91  A    between atoms: _219  and  _221
REMARK   92  A    between atoms: _221  and  _222
REMARK   93  A    between atoms: _221  and  _224
REMARK   94  A    between atoms: _224  and  _225
REMARK   95  A    between atoms: _227  and  _229
REMARK   96  A    between atoms: _229  and  _230
REMARK   97  A    between atoms: _229  and  _232
REMARK   98  A    between atoms: _232  and  _233
REMARK   99  A    between atoms: _236  and  _238
REMARK  100  A    between atoms: _238  and  _239
REMARK  101  A    between atoms: _238  and  _241
REMARK  102  A    between atoms: _244  and  _246
REMARK  103  A    between atoms: _246  and  _247
REMARK  104  A    between atoms: _246  and  _249
REMARK  105  A    between atoms: _252  and  _254
REMARK  106  A    between atoms: _254  and  _255
REMARK  107  A    between atoms: _259  and  _260
REMARK  108  A    between atoms: _265  and  _267
REMARK  109  A    between atoms: _267  and  _268
REMARK  110  A    between atoms: _267  and  _270
REMARK  111  A    between atoms: _270  and  _271
REMARK  112  A    between atoms: _271  and  _272
REMARK  113  A    between atoms: _275  and  _277
REMARK  114  A    between atoms: _277  and  _278
REMARK  115  A    between atoms: _277  and  _280
REMARK  116  A    between atoms: _280  and  _281
REMARK  117  A    between atoms: _291  and  _293
REMARK  118  A    between atoms: _293  and  _294
REMARK  119  A    between atoms: _293  and  _296
REMARK  120  A    between atoms: _296  and  _297
REMARK  121  A    between atoms: _297  and  _298
REMARK  122  A    between atoms: _300  and  _302
REMARK  123  A    between atoms: _302  and  _303
REMARK  124  A    between atoms: _302  and  _305
REMARK  125  A    between atoms: _305  and  _306
REMARK  126  A    between atoms: _313  and  _314
REMARK  127  A    between atoms: _319  and  _321
REMARK  128  A    between atoms: _321  and  _322
REMARK  129  A    between atoms: _325  and  _327
REMARK  130  A    between atoms: _327  and  _328
REMARK  131  A    between atoms: _327  and  _330
REMARK  132  A    between atoms: _330  and  _331
REMARK  133  A    between atoms: _334  and  _336
REMARK  134  A    between atoms: _336  and  _337
REMARK  135  A    between atoms: _339  and  _341
REMARK  136  A    between atoms: _341  and  _342
REMARK  137  A    between atoms: _341  and  _344
REMARK  138  A    between atoms: _344  and  _345
REMARK  139  A    between atoms: _348  and  _350
REMARK  140  A    between atoms: _350  and  _351
REMARK  141  A    between atoms: _353  and  _355
REMARK  142  A    between atoms: _355  and  _356
REMARK  143  A    between atoms: _355  and  _358
REMARK  144  A    between atoms: _358  and  _359
REMARK  145  A    between atoms: _364  and  _366
REMARK  146  A    between atoms: _366  and  _367
REMARK  147  A    between atoms: _366  and  _369
REMARK  148  A    between atoms: _369  and  _370
REMARK  149  A    between atoms: _373  and  _375
REMARK  150  A    between atoms: _375  and  _376
REMARK  151  A    between atoms: _378  and  _380
REMARK  152  A    between atoms: _380  and  _381
REMARK  153  A    between atoms: _380  and  _383
REMARK  154  A    between atoms: _383  and  _384
REMARK  155  A    between atoms: _390  and  _392
REMARK  156  A    between atoms: _392  and  _393
REMARK  157  A    between atoms: _392  and  _395
REMARK  158  A    between atoms: _395  and  _396
REMARK  159  A    between atoms: _396  and  _397
REMARK  160  A    between atoms: _397  and  _398
REMARK  161  A    between atoms: _398  and  _399
REMARK  162  A    between atoms: _403  and  _405
REMARK  163  A    between atoms: _405  and  _406
REMARK  164  A    between atoms: _405  and  _408
REMARK  165  A    between atoms: _408  and  _409
REMARK  166  A    between atoms: _415  and  _417
REMARK  167  A    between atoms: _417  and  _418
REMARK  168  A    between atoms: _417  and  _420
REMARK  169  A    between atoms: _420  and  _421
REMARK  170  A    between atoms: _424  and  _426
REMARK  171  A    between atoms: _426  and  _427
REMARK  172  A    between atoms: _426  and  _429
REMARK  173  A    between atoms: _429  and  _430
REMARK  174  A    between atoms: _433  and  _435
REMARK  175  A    between atoms: _435  and  _436
REMARK  176  A    between atoms: _435  and  _438
REMARK  177  A    between atoms: _438  and  _439
REMARK  178  A    between atoms: _445  and  _446
REMARK  179  A    between atoms: _451  and  _453
REMARK  180  A    between atoms: _453  and  _454
REMARK  181  A    between atoms: _453  and  _456
REMARK  182  A    between atoms: _456  and  _457
REMARK  183  A    between atoms: _459  and  _461
REMARK  184  A    between atoms: _461  and  _462
REMARK  185  A    between atoms: _461  and  _464
REMARK  186  A    between atoms: _464  and  _465
REMARK  187  A    between atoms: _468  and  _470
REMARK  188  A    between atoms: _470  and  _471
REMARK  189  A    between atoms: _470  and  _473
REMARK  190  A    between atoms: _473  and  _474
REMARK  191  A    between atoms: _479  and  _481
REMARK  192  A    between atoms: _481  and  _482
REMARK  193  A    between atoms: _481  and  _484
REMARK  194  A    between atoms: _484  and  _485
REMARK  195  A    between atoms: _485  and  _486
REMARK  196  A    between atoms: _489  and  _491
REMARK  197  A    between atoms: _491  and  _492
REMARK  198  A    between atoms: _491  and  _494
REMARK  199  A    between atoms: _494  and  _495
REMARK  200  A    between atoms: _500  and  _502
REMARK  201  A    between atoms: _502  and  _503
REMARK  202  A    between atoms: _502  and  _505
REMARK  203  A    between atoms: _505  and  _506
REMARK  204  A    between atoms: _509  and  _511
REMARK  205  A    between atoms: _511  and  _512
REMARK  206  A    between atoms: _511  and  _514
REMARK  207  A    between atoms: _514  and  _515
REMARK                            x       y       z     vdW  Elec       q    Type
REMARK                         _______ _______ _______ _____ _____    ______ ____
ROOT
ATOM      1  O   HOH     1     -23.794   7.199 -33.740  0.00  0.00    +0.000 OA
ENDROOT
TORSDOF 0
REMARK  Name = ../refined-set-2016/3q71/3q71_pocket.pdb
REMARK  207 active torsions:
REMARK  status: ('A' for Active; 'I' for Inactive)
REMARK    1  A    between atoms: _1  and  _3
REMARK    2  A    between atoms: _3  and  _4
REMARK    3  A    between atoms: _3  and  _6
REMARK    4  A    between atoms: _9  and  _11
REMARK    5  A    between atoms: _11  and  _12
REMARK    6  A    between atoms: _11  and  _14
REMARK    7  A    between atoms: _14  and  _15
REMARK    8  A    between atoms: _15  and  _16
REMARK    9  A    between atoms: _16  and  _17
REMARK   10  A    between atoms: _17  and  _18
REMARK   11  A    between atoms: _22  and  _24
REMARK   12  A    between atoms: _24  and  _25
REMARK   13  A    between atoms: _24  and  _27
REMARK   14  A    between atoms: _27  and  _28
REMARK   15  A    between atoms: _28  and  _29
REMARK   16  A    between atoms: _32  and  _34
REMARK   17  A    between atoms: _34  and  _35
REMARK   18  A    between atoms: _37  and  _39
REMARK   19  A    between atoms: _39  and  _40
REMARK   20  A    between atoms: _39  and  _42
REMARK   21  A    between atoms: _45  and  _47
REMARK   22  A    between atoms: _47  and  _48
REMARK   23  A    between atoms: _47  and  _50
REMARK   24  A    between atoms: _50  and  _51
REMARK   25  A    between atoms: _51  and  _52
REMARK   26  A    between atoms: _57  and  _59
REMARK   27  A    between atoms: _59  and  _60
REMARK   28  A    between atoms: _59  and  _62
REMARK   29  A    between atoms: _62  and  _63
REMARK   30  A    between atoms: _68  and  _70
REMARK   31  A    between atoms: _70  and  _71
REMARK   32  A    between atoms: _74  and  _76
REMARK   33  A    between atoms: _76  and  _77
REMARK   34  A    between atoms: _76  and  _79
REMARK   35  A    between atoms: _79  and  _80
REMARK   36  A    between atoms: _85  and  _87
REMARK   37  A    between atoms: _87  and  _88
REMARK   38  A    between atoms: _87  and  _90
REMARK   39  A    between atoms: _90  and  _91
REMARK   40  A    between atoms: _93  and  _95
REMARK   41  A    between atoms: _95  and  _96
REMARK   42  A    between atoms: _95  and  _98
REMARK   43  A    between atoms: _102  and  _103
REMARK   44  A    between atoms: _108  and  _110
REMARK   45  A    between atoms: _110  and  _111
REMARK   46  A    between atoms: _110  and  _113
REMARK   47  A    between atoms: _113  and  _114
REMARK   48  A    between atoms: _117  and  _119
REMARK   49  A    between atoms: _119  and  _120
REMARK   50  A    between atoms: _119  and  _122
REMARK   51  A    between atoms: _122  and  _123
REMARK   52  A    between atoms: _126  and  _128
REMARK   53  A    between atoms: _128  and  _129
REMARK   54  A    between atoms: _128  and  _131
REMARK   55  A    between atoms: _131  and  _132
REMARK   56  A    between atoms: _135  and  _137
REMARK   57  A    between atoms: _137  and  _138
REMARK   58  A    between atoms: _137  and  _140
REMARK   59  A    between atoms: _143  and  _145
REMARK   60  A    between atoms: _145  and  _146
REMARK   61  A    between atoms: _145  and  _148
REMARK   62  A    between atoms: _148  and  _149
REMARK   63  A    between atoms: _152  and  _154
REMARK   64  A    between atoms: _154  and  _155
REMARK   65  A    between atoms: _154  and  _157
REMARK   66  A    between atoms: _157  and  _158
REMARK   67  A    between atoms: _160  and  _162
REMARK   68  A    between atoms: _162  and  _163
REMARK   69  A    between atoms: _162  and  _165
REMARK   70  A    between atoms: _165  and  _166
REMARK   71  A    between atoms: _166  and  _167
REMARK   72  A    between atoms: _167  and  _168
REMARK   73  A    between atoms: _177  and  _179
REMARK   74  A    between atoms: _179  and  _180
REMARK   75  A    between atoms: _183  and  _184
REMARK   76  A    between atoms: _189  and  _191
REMARK   77  A    between atoms: _191  and  _192
REMARK   78  A    between atoms: _191  and  _194
REMARK   79  A    between atoms: _194  and  _195
REMARK   80  A    between atoms: _198  and  _200
REMARK   81  A    between atoms: _200  and  _201
REMARK   82  A    between atoms: _200  and  _203
REMARK   83  A    between atoms: _203  and  _204
REMARK   84  A    between atoms: _206  and  _208
REMARK   85  A    between atoms: _208  and  _209
REMARK   86  A    between atoms: _208  and  _211
REMARK   87  A    between atoms: _211  and  _212
REMARK   88  A    between atoms: _212  and  _213
REMARK   89  A    between atoms: _213  and  _214
REMARK   90  A    between atoms: _214  and  _215
REMARK   91  A    between atoms: _219  and  _221
REMARK   92  A    between atoms: _221  and  _222
REMARK   93  A    between atoms: _221  and  _224
REMARK   94  A    between atoms: _224  and  _225
REMARK   95  A    between atoms: _227  and  _229
REMARK   96  A    between atoms: _229  and  _230
REMARK   97  A    between atoms: _229  and  _232
REMARK   98  A    between atoms: _232  and  _233
REMARK   99  A    between atoms: _236  and  _238
REMARK  100  A    between atoms: _238  and  _239
REMARK  101  A    between atoms: _238  and  _241
REMARK  102  A    between atoms: _244  and  _246
REMARK  103  A    between atoms: _246  and  _247
REMARK  104  A    between atoms: _246  and  _249
REMARK  105  A    between atoms: _252  and  _254
REMARK  106  A    between atoms: _254  and  _255
REMARK  107  A    between atoms: _259  and  _260
REMARK  108  A    between atoms: _265  and  _267
REMARK  109  A    between atoms: _267  and  _268
REMARK  110  A    between atoms: _267  and  _270
REMARK  111  A    between atoms: _270  and  _271
REMARK  112  A    between atoms: _271  and  _272
REMARK  113  A    between atoms: _275  and  _277
REMARK  114  A    between atoms: _277  and  _278
REMARK  115  A    between atoms: _277  and  _280
REMARK  116  A    between atoms: _280  and  _281
REMARK  117  A    between atoms: _291  and  _293
REMARK  118  A    between atoms: _293  and  _294
REMARK  119  A    between atoms: _293  and  _296
REMARK  120  A    between atoms: _296  and  _297
REMARK  121  A    between atoms: _297  and  _298
REMARK  122  A    between atoms: _300  and  _302
REMARK  123  A    between atoms: _302  and  _303
REMARK  124  A    between atoms: _302  and  _305
REMARK  125  A    between atoms: _305  and  _306
REMARK  126  A    between atoms: _313  and  _314
REMARK  127  A    between atoms: _319  and  _321
REMARK  128  A    between atoms: _321  and  _322
REMARK  129  A    between atoms: _325  and  _327
REMARK  130  A    between atoms: _327  and  _328
REMARK  131  A    between atoms: _327  and  _330
REMARK  132  A    between atoms: _330  and  _331
REMARK  133  A    between atoms: _334  and  _336
REMARK  134  A    between atoms: _336  and  _337
REMARK  135  A    between atoms: _339  and  _341
REMARK  136  A    between atoms: _341  and  _342
REMARK  137  A    between atoms: _341  and  _344
REMARK  138  A    between atoms: _344  and  _345
REMARK  139  A    between atoms: _348  and  _350
REMARK  140  A    between atoms: _350  and  _351
REMARK  141  A    between atoms: _353  and  _355
REMARK  142  A    between atoms: _355  and  _356
REMARK  143  A    between atoms: _355  and  _358
REMARK  144  A    between atoms: _358  and  _359
REMARK  145  A    between atoms: _364  and  _366
REMARK  146  A    between atoms: _366  and  _367
REMARK  147  A    between atoms: _366  and  _369
REMARK  148  A    between atoms: _369  and  _370
REMARK  149  A    between atoms: _373  and  _375
REMARK  150  A    between atoms: _375  and  _376
REMARK  151  A    between atoms: _378  and  _380
REMARK  152  A    between atoms: _380  and  _381
REMARK  153  A    between atoms: _380  and  _383
REMARK  154  A    between atoms: _383  and  _384
REMARK  155  A    between atoms: _390  and  _392
REMARK  156  A    between atoms: _392  and  _393
REMARK  157  A    between atoms: _392  and  _395
REMARK  158  A    between atoms: _395  and  _396
REMARK  159  A    between atoms: _396  and  _397
REMARK  160  A    between atoms: _397  and  _398
REMARK  161  A    between atoms: _398  and  _399
REMARK  162  A    between atoms: _403  and  _405
REMARK  163  A    between atoms: _405  and  _406
REMARK  164  A    between atoms: _405  and  _408
REMARK  165  A    between atoms: _408  and  _409
REMARK  166  A    between atoms: _415  and  _417
REMARK  167  A    between atoms: _417  and  _418
REMARK  168  A    between atoms: _417  and  _420
REMARK  169  A    between atoms: _420  and  _421
REMARK  170  A    between atoms: _424  and  _426
REMARK  171  A    between atoms: _426  and  _427
REMARK  172  A    between atoms: _426  and  _429
REMARK  173  A    between atoms: _429  and  _430
REMARK  174  A    between atoms: _433  and  _435
REMARK  175  A    between atoms: _435  and  _436
REMARK  176  A    between atoms: _435  and  _438
REMARK  177  A    between atoms: _438  and  _439
REMARK  178  A    between atoms: _445  and  _446
REMARK  179  A    between atoms: _451  and  _453
REMARK  180  A    between atoms: _453  and  _454
REMARK  181  A    between atoms: _453  and  _456
REMARK  182  A    between atoms: _456  and  _457
REMARK  183  A    between atoms: _459  and  _461
REMARK  184  A    between atoms: _461  and  _462
REMARK  185  A    between atoms: _461  and  _464
REMARK  186  A    between atoms: _464  and  _465
REMARK  187  A    between atoms: _468  and  _470
REMARK  188  A    between atoms: _470  and  _471
REMARK  189  A    between atoms: _470  and  _473
REMARK  190  A    between atoms: _473  and  _474
REMARK  191  A    between atoms: _479  and  _481
REMARK  192  A    between atoms: _481  and  _482
REMARK  193  A    between atoms: _481  and  _484
REMARK  194  A    between atoms: _484  and  _485
REMARK  195  A    between atoms: _485  and  _486
REMARK  196  A    between atoms: _489  and  _491
REMARK  197  A    between atoms: _491  and  _492
REMARK  198  A    between atoms: _491  and  _494
REMARK  199  A    between atoms: _494  and  _495
REMARK  200  A    between atoms: _500  and  _502
REMARK  201  A    between atoms: _502  and  _503
REMARK  202  A    between atoms: _502  and  _505
REMARK  203  A    between atoms: _505  and  _506
REMARK  204  A    between atoms: _509  and  _511
REMARK  205  A    between atoms: _511  and  _512
REMARK  206  A    between atoms: _511  and  _514
REMARK  207  A    between atoms: _514  and  _515
REMARK                            x       y       z     vdW  Elec       q    Type
REMARK                         _______ _______ _______ _____ _____    ______ ____
ROOT
ATOM      1  O   HOH     1     -27.746   8.867 -21.627  0.00  0.00    +0.000 OA
ENDROOT
TORSDOF 0
REMARK  Name = ../refined-set-2016/3q71/3q71_pocket.pdb
REMARK  207 active torsions:
REMARK  status: ('A' for Active; 'I' for Inactive)
REMARK    1  A    between atoms: _1  and  _3
REMARK    2  A    between atoms: _3  and  _4
REMARK    3  A    between atoms: _3  and  _6
REMARK    4  A    between atoms: _9  and  _11
REMARK    5  A    between atoms: _11  and  _12
REMARK    6  A    between atoms: _11  and  _14
REMARK    7  A    between atoms: _14  and  _15
REMARK    8  A    between atoms: _15  and  _16
REMARK    9  A    between atoms: _16  and  _17
REMARK   10  A    between atoms: _17  and  _18
REMARK   11  A    between atoms: _22  and  _24
REMARK   12  A    between atoms: _24  and  _25
REMARK   13  A    between atoms: _24  and  _27
REMARK   14  A    between atoms: _27  and  _28
REMARK   15  A    between atoms: _28  and  _29
REMARK   16  A    between atoms: _32  and  _34
REMARK   17  A    between atoms: _34  and  _35
REMARK   18  A    between atoms: _37  and  _39
REMARK   19  A    between atoms: _39  and  _40
REMARK   20  A    between atoms: _39  and  _42
REMARK   21  A    between atoms: _45  and  _47
REMARK   22  A    between atoms: _47  and  _48
REMARK   23  A    between atoms: _47  and  _50
REMARK   24  A    between atoms: _50  and  _51
REMARK   25  A    between atoms: _51  and  _52
REMARK   26  A    between atoms: _57  and  _59
REMARK   27  A    between atoms: _59  and  _60
REMARK   28  A    between atoms: _59  and  _62
REMARK   29  A    between atoms: _62  and  _63
REMARK   30  A    between atoms: _68  and  _70
REMARK   31  A    between atoms: _70  and  _71
REMARK   32  A    between atoms: _74  and  _76
REMARK   33  A    between atoms: _76  and  _77
REMARK   34  A    between atoms: _76  and  _79
REMARK   35  A    between atoms: _79  and  _80
REMARK   36  A    between atoms: _85  and  _87
REMARK   37  A    between atoms: _87  and  _88
REMARK   38  A    between atoms: _87  and  _90
REMARK   39  A    between atoms: _90  and  _91
REMARK   40  A    between atoms: _93  and  _95
REMARK   41  A    between atoms: _95  and  _96
REMARK   42  A    between atoms: _95  and  _98
REMARK   43  A    between atoms: _102  and  _103
REMARK   44  A    between atoms: _108  and  _110
REMARK   45  A    between atoms: _110  and  _111
REMARK   46  A    between atoms: _110  and  _113
REMARK   47  A    between atoms: _113  and  _114
REMARK   48  A    between atoms: _117  and  _119
REMARK   49  A    between atoms: _119  and  _120
REMARK   50  A    between atoms: _119  and  _122
REMARK   51  A    between atoms: _122  and  _123
REMARK   52  A    between atoms: _126  and  _128
REMARK   53  A    between atoms: _128  and  _129
REMARK   54  A    between atoms: _128  and  _131
REMARK   55  A    between atoms: _131  and  _132
REMARK   56  A    between atoms: _135  and  _137
REMARK   57  A    between atoms: _137  and  _138
REMARK   58  A    between atoms: _137  and  _140
REMARK   59  A    between atoms: _143  and  _145
REMARK   60  A    between atoms: _145  and  _146
REMARK   61  A    between atoms: _145  and  _148
REMARK   62  A    between atoms: _148  and  _149
REMARK   63  A    between atoms: _152  and  _154
REMARK   64  A    between atoms: _154  and  _155
REMARK   65  A    between atoms: _154  and  _157
REMARK   66  A    between atoms: _157  and  _158
REMARK   67  A    between atoms: _160  and  _162
REMARK   68  A    between atoms: _162  and  _163
REMARK   69  A    between atoms: _162  and  _165
REMARK   70  A    between atoms: _165  and  _166
REMARK   71  A    between atoms: _166  and  _167
REMARK   72  A    between atoms: _167  and  _168
REMARK   73  A    between atoms: _177  and  _179
REMARK   74  A    between atoms: _179  and  _180
REMARK   75  A    between atoms: _183  and  _184
REMARK   76  A    between atoms: _189  and  _191
REMARK   77  A    between atoms: _191  and  _192
REMARK   78  A    between atoms: _191  and  _194
REMARK   79  A    between atoms: _194  and  _195
REMARK   80  A    between atoms: _198  and  _200
REMARK   81  A    between atoms: _200  and  _201
REMARK   82  A    between atoms: _200  and  _203
REMARK   83  A    between atoms: _203  and  _204
REMARK   84  A    between atoms: _206  and  _208
REMARK   85  A    between atoms: _208  and  _209
REMARK   86  A    between atoms: _208  and  _211
REMARK   87  A    between atoms: _211  and  _212
REMARK   88  A    between atoms: _212  and  _213
REMARK   89  A    between atoms: _213  and  _214
REMARK   90  A    between atoms: _214  and  _215
REMARK   91  A    between atoms: _219  and  _221
REMARK   92  A    between atoms: _221  and  _222
REMARK   93  A    between atoms: _221  and  _224
REMARK   94  A    between atoms: _224  and  _225
REMARK   95  A    between atoms: _227  and  _229
REMARK   96  A    between atoms: _229  and  _230
REMARK   97  A    between atoms: _229  and  _232
REMARK   98  A    between atoms: _232  and  _233
REMARK   99  A    between atoms: _236  and  _238
REMARK  100  A    between atoms: _238  and  _239
REMARK  101  A    between atoms: _238  and  _241
REMARK  102  A    between atoms: _244  and  _246
REMARK  103  A    between atoms: _246  and  _247
REMARK  104  A    between atoms: _246  and  _249
REMARK  105  A    between atoms: _252  and  _254
REMARK  106  A    between atoms: _254  and  _255
REMARK  107  A    between atoms: _259  and  _260
REMARK  108  A    between atoms: _265  and  _267
REMARK  109  A    between atoms: _267  and  _268
REMARK  110  A    between atoms: _267  and  _270
REMARK  111  A    between atoms: _270  and  _271
REMARK  112  A    between atoms: _271  and  _272
REMARK  113  A    between atoms: _275  and  _277
REMARK  114  A    between atoms: _277  and  _278
REMARK  115  A    between atoms: _277  and  _280
REMARK  116  A    between atoms: _280  and  _281
REMARK  117  A    between atoms: _291  and  _293
REMARK  118  A    between atoms: _293  and  _294
REMARK  119  A    between atoms: _293  and  _296
REMARK  120  A    between atoms: _296  and  _297
REMARK  121  A    between atoms: _297  and  _298
REMARK  122  A    between atoms: _300  and  _302
REMARK  123  A    between atoms: _302  and  _303
REMARK  124  A    between atoms: _302  and  _305
REMARK  125  A    between atoms: _305  and  _306
REMARK  126  A    between atoms: _313  and  _314
REMARK  127  A    between atoms: _319  and  _321
REMARK  128  A    between atoms: _321  and  _322
REMARK  129  A    between atoms: _325  and  _327
REMARK  130  A    between atoms: _327  and  _328
REMARK  131  A    between atoms: _327  and  _330
REMARK  132  A    between atoms: _330  and  _331
REMARK  133  A    between atoms: _334  and  _336
REMARK  134  A    between atoms: _336  and  _337
REMARK  135  A    between atoms: _339  and  _341
REMARK  136  A    between atoms: _341  and  _342
REMARK  137  A    between atoms: _341  and  _344
REMARK  138  A    between atoms: _344  and  _345
REMARK  139  A    between atoms: _348  and  _350
REMARK  140  A    between atoms: _350  and  _351
REMARK  141  A    between atoms: _353  and  _355
REMARK  142  A    between atoms: _355  and  _356
REMARK  143  A    between atoms: _355  and  _358
REMARK  144  A    between atoms: _358  and  _359
REMARK  145  A    between atoms: _364  and  _366
REMARK  146  A    between atoms: _366  and  _367
REMARK  147  A    between atoms: _366  and  _369
REMARK  148  A    between atoms: _369  and  _370
REMARK  149  A    between atoms: _373  and  _375
REMARK  150  A    between atoms: _375  and  _376
REMARK  151  A    between atoms: _378  and  _380
REMARK  152  A    between atoms: _380  and  _381
REMARK  153  A    between atoms: _380  and  _383
REMARK  154  A    between atoms: _383  and  _384
REMARK  155  A    between atoms: _390  and  _392
REMARK  156  A    between atoms: _392  and  _393
REMARK  157  A    between atoms: _392  and  _395
REMARK  158  A    between atoms: _395  and  _396
REMARK  159  A    between atoms: _396  and  _397
REMARK  160  A    between atoms: _397  and  _398
REMARK  161  A    between atoms: _398  and  _399
REMARK  162  A    between atoms: _403  and  _405
REMARK  163  A    between atoms: _405  and  _406
REMARK  164  A    between atoms: _405  and  _408
REMARK  165  A    between atoms: _408  and  _409
REMARK  166  A    between atoms: _415  and  _417
REMARK  167  A    between atoms: _417  and  _418
REMARK  168  A    between atoms: _417  and  _420
REMARK  169  A    between atoms: _420  and  _421
REMARK  170  A    between atoms: _424  and  _426
REMARK  171  A    between atoms: _426  and  _427
REMARK  172  A    between atoms: _426  and  _429
REMARK  173  A    between atoms: _429  and  _430
REMARK  174  A    between atoms: _433  and  _435
REMARK  175  A    between atoms: _435  and  _436
REMARK  176  A    between atoms: _435  and  _438
REMARK  177  A    between atoms: _438  and  _439
REMARK  178  A    between atoms: _445  and  _446
REMARK  179  A    between atoms: _451  and  _453
REMARK  180  A    between atoms: _453  and  _454
REMARK  181  A    between atoms: _453  and  _456
REMARK  182  A    between atoms: _456  and  _457
REMARK  183  A    between atoms: _459  and  _461
REMARK  184  A    between atoms: _461  and  _462
REMARK  185  A    between atoms: _461  and  _464
REMARK  186  A    between atoms: _464  and  _465
REMARK  187  A    between atoms: _468  and  _470
REMARK  188  A    between atoms: _470  and  _471
REMARK  189  A    between atoms: _470  and  _473
REMARK  190  A    between atoms: _473  and  _474
REMARK  191  A    between atoms: _479  and  _481
REMARK  192  A    between atoms: _481  and  _482
REMARK  193  A    between atoms: _481  and  _484
REMARK  194  A    between atoms: _484  and  _485
REMARK  195  A    between atoms: _485  and  _486
REMARK  196  A    between atoms: _489  and  _491
REMARK  197  A    between atoms: _491  and  _492
REMARK  198  A    between atoms: _491  and  _494
REMARK  199  A    between atoms: _494  and  _495
REMARK  200  A    between atoms: _500  and  _502
REMARK  201  A    between atoms: _502  and  _503
REMARK  202  A    between atoms: _502  and  _505
REMARK  203  A    between atoms: _505  and  _506
REMARK  204  A    between atoms: _509  and  _511
REMARK  205  A    between atoms: _511  and  _512
REMARK  206  A    between atoms: _511  and  _514
REMARK  207  A    between atoms: _514  and  _515
REMARK                            x       y       z     vdW  Elec       q    Type
REMARK                         _______ _______ _______ _____ _____    ______ ____
ROOT
ATOM      1  O   HOH     1     -25.804   7.926 -20.264  0.00  0.00    +0.000 OA
ENDROOT
TORSDOF 0
