REMARK  Name = ../refined-set-2016/1gyx/1gyx_pocket.pdb
REMARK  104 active torsions:
REMARK  status: ('A' for Active; 'I' for Inactive)
REMARK    1  A    between atoms: _1  and  _3
REMARK    2  A    between atoms: _3  and  _4
REMARK    3  A    between atoms: _3  and  _6
REMARK    4  A    between atoms: _6  and  _7
REMARK    5  A    between atoms: _10  and  _12
REMARK    6  A    between atoms: _12  and  _13
REMARK    7  A    between atoms: _12  and  _15
REMARK    8  A    between atoms: _15  and  _16
REMARK    9  A    between atoms: _16  and  _17
REMARK   10  A    between atoms: _17  and  _18
REMARK   11  A    between atoms: _18  and  _19
REMARK   12  A    between atoms: _23  and  _25
REMARK   13  A    between atoms: _25  and  _26
REMARK   14  A    between atoms: _25  and  _28
REMARK   15  A    between atoms: _30  and  _32
REMARK   16  A    between atoms: _32  and  _33
REMARK   17  A    between atoms: _32  and  _35
REMARK   18  A    between atoms: _35  and  _36
REMARK   19  A    between atoms: _43  and  _44
REMARK   20  A    between atoms: _49  and  _51
REMARK   21  A    between atoms: _51  and  _52
REMARK   22  A    between atoms: _51  and  _54
REMARK   23  A    between atoms: _54  and  _55
REMARK   24  A    between atoms: _55  and  _56
REMARK   25  A    between atoms: _56  and  _57
REMARK   26  A    between atoms: _66  and  _68
REMARK   27  A    between atoms: _68  and  _69
REMARK   28  A    between atoms: _68  and  _71
REMARK   29  A    between atoms: _71  and  _72
REMARK   30  A    between atoms: _72  and  _73
REMARK   31  A    between atoms: _78  and  _80
REMARK   32  A    between atoms: _80  and  _81
REMARK   33  A    between atoms: _80  and  _83
REMARK   34  A    between atoms: _83  and  _84
REMARK   35  A    between atoms: _88  and  _89
REMARK   36  A    between atoms: _94  and  _96
REMARK   37  A    between atoms: _96  and  _97
REMARK   38  A    between atoms: _96  and  _99
REMARK   39  A    between atoms: _99  and  _100
REMARK   40  A    between atoms: _110  and  _112
REMARK   41  A    between atoms: _112  and  _113
REMARK   42  A    between atoms: _112  and  _115
REMARK   43  A    between atoms: _115  and  _116
REMARK   44  A    between atoms: _126  and  _128
REMARK   45  A    between atoms: _128  and  _129
REMARK   46  A    between atoms: _128  and  _131
REMARK   47  A    between atoms: _131  and  _132
REMARK   48  A    between atoms: _136  and  _137
REMARK   49  A    between atoms: _142  and  _144
REMARK   50  A    between atoms: _144  and  _145
REMARK   51  A    between atoms: _147  and  _149
REMARK   52  A    between atoms: _149  and  _150
REMARK   53  A    between atoms: _149  and  _152
REMARK   54  A    between atoms: _152  and  _153
REMARK   55  A    between atoms: _158  and  _159
REMARK   56  A    between atoms: _161  and  _163
REMARK   57  A    between atoms: _163  and  _164
REMARK   58  A    between atoms: _163  and  _166
REMARK   59  A    between atoms: _166  and  _167
REMARK   60  A    between atoms: _167  and  _168
REMARK   61  A    between atoms: _171  and  _172
REMARK   62  A    between atoms: _177  and  _179
REMARK   63  A    between atoms: _179  and  _180
REMARK   64  A    between atoms: _179  and  _182
REMARK   65  A    between atoms: _182  and  _183
REMARK   66  A    between atoms: _188  and  _190
REMARK   67  A    between atoms: _190  and  _191
REMARK   68  A    between atoms: _190  and  _193
REMARK   69  A    between atoms: _193  and  _194
REMARK   70  A    between atoms: _197  and  _199
REMARK   71  A    between atoms: _199  and  _200
REMARK   72  A    between atoms: _199  and  _202
REMARK   73  A    between atoms: _202  and  _203
REMARK   74  A    between atoms: _206  and  _208
REMARK   75  A    between atoms: _208  and  _209
REMARK   76  A    between atoms: _208  and  _211
REMARK   77  A    between atoms: _211  and  _212
REMARK   78  A    between atoms: _217  and  _219
REMARK   79  A    between atoms: _219  and  _220
REMARK   80  A    between atoms: _219  and  _222
REMARK   81  A    between atoms: _222  and  _223
REMARK   82  A    between atoms: _225  and  _227
REMARK   83  A    between atoms: _227  and  _228
REMARK   84  A    between atoms: _227  and  _230
REMARK   85  A    between atoms: _230  and  _231
REMARK   86  A    between atoms: _231  and  _232
REMARK   87  A    between atoms: _232  and  _233
REMARK   88  A    between atoms: _233  and  _234
REMARK   89  A    between atoms: _238  and  _240
REMARK   90  A    between atoms: _240  and  _241
REMARK   91  A    between atoms: _240  and  _243
REMARK   92  A    between atoms: _243  and  _244
REMARK   93  A    between atoms: _246  and  _248
REMARK   94  A    between atoms: _248  and  _249
REMARK   95  A    between atoms: _248  and  _251
REMARK   96  A    between atoms: _251  and  _252
REMARK   97  A    between atoms: _254  and  _256
REMARK   98  A    between atoms: _256  and  _257
REMARK   99  A    between atoms: _256  and  _259
REMARK  100  A    between atoms: _259  and  _260
REMARK  101  A    between atoms: _263  and  _265
REMARK  102  A    between atoms: _265  and  _266
REMARK  103  A    between atoms: _265  and  _268
REMARK  104  A    between atoms: _268  and  _269
REMARK                            x       y       z     vdW  Elec       q    Type
REMARK                         _______ _______ _______ _____ _____    ______ ____
ROOT
ATOM      1  CA  PHE A   4       6.948   4.804  23.154  0.00  0.00    +0.153 C 
ENDROOT
BRANCH   1   2
ATOM      2  C   PHE A   4       6.160   6.075  22.868  0.00  0.00    +0.244 C 
ATOM      3  N   PRO A   5       4.947   6.181  23.398  0.00  0.00    -0.272 N 
ATOM      4  CD  PRO A   5       4.248   5.160  24.226  0.00  0.00    +0.094 C 
ATOM      5  CG  PRO A   5       2.801   5.536  23.984  0.00  0.00    +0.024 C 
ATOM      6  CB  PRO A   5       2.824   7.022  23.853  0.00  0.00    +0.031 C 
ATOM      7  CA  PRO A   5       4.098   7.303  23.063  0.00  0.00    +0.152 C 
ATOM      8  O   PHE A   4       6.612   6.978  22.156  0.00  0.00    -0.273 OA
BRANCH   7   9
ATOM      9  C   PRO A   5       4.673   8.647  23.457  0.00  0.00    +0.241 C 
ATOM     10  O   PRO A   5       5.410   8.862  24.414  0.00  0.00    -0.273 OA
ATOM     11  N   ARG A   6       4.300   9.621  22.623  0.00  0.00    -0.298 N 
ATOM     12  H   ARG A   6       3.790   9.379  21.749  0.00  0.00    +0.150 HD
BRANCH  11  13
ATOM     13  CA  ARG A   6       4.594  11.013  22.915  0.00  0.00    +0.137 C 
BRANCH  13  14
ATOM     14  C   ARG A   6       3.634  11.896  22.105  0.00  0.00    +0.227 C 
ATOM     15  O   ARG A   6       3.122  11.490  21.081  0.00  0.00    -0.286 OA
ENDBRANCH  13  14
BRANCH  13  16
ATOM     16  CB  ARG A   6       6.012  11.446  22.661  0.00  0.00    +0.031 C 
BRANCH  16  17
ATOM     17  CG  ARG A   6       6.534  11.145  21.280  0.00  0.00    +0.045 C 
BRANCH  17  18
ATOM     18  CD  ARG A   6       7.352   9.867  21.288  0.00  0.00    +0.174 C 
BRANCH  18  19
ATOM     19  NE  ARG A   6       8.509   9.969  22.133  0.00  0.00    -0.265 N 
ATOM     20  CZ  ARG A   6       9.311   9.057  22.642  0.00  0.00    +0.342 C 
ATOM     21  NH2 ARG A   6      10.311   9.520  23.415  0.00  0.00    -0.292 N 
ATOM     22 HH21 ARG A   6      10.983   8.855  23.850  0.00  0.00    +0.255 HD
ATOM     23 HH22 ARG A   6      10.412  10.542  23.577  0.00  0.00    +0.255 HD
ATOM     24  NH1 ARG A   6       9.267   7.736  22.498  0.00  0.00    -0.292 N 
ATOM     25 HH11 ARG A   6       9.977   7.138  22.966  0.00  0.00    +0.255 HD
ATOM     26 HH12 ARG A   6       8.522   7.301  21.917  0.00  0.00    +0.255 HD
ATOM     27  HE  ARG A   6       8.760  10.945  22.391  0.00  0.00    +0.259 HD
ENDBRANCH  18  19
ENDBRANCH  17  18
ENDBRANCH  16  17
ENDBRANCH  13  16
ENDBRANCH  11  13
ENDBRANCH   7   9
ENDBRANCH   1   2
BRANCH   1  29
ATOM     28  C   CYS A   3       7.521   4.420  20.832  0.00  0.00    +0.242 C 
ATOM     29  N   PHE A   4       7.937   4.678  22.068  0.00  0.00    -0.297 N 
ATOM     30  H   PHE A   4       8.952   4.790  22.267  0.00  0.00    +0.150 HD
ATOM     31  O   CYS A   3       6.354   4.249  20.506  0.00  0.00    -0.273 OA
BRANCH  28  32
ATOM     32  CA  CYS A   3       8.616   4.459  19.774  0.00  0.00    +0.160 C 
BRANCH  32  34
ATOM     33  C   LYS A   2       9.023   3.318  17.689  0.00  0.00    +0.241 C 
ATOM     34  N   CYS A   3       8.158   3.838  18.554  0.00  0.00    -0.296 N 
ATOM     35  H   CYS A   3       7.139   3.797  18.349  0.00  0.00    +0.150 HD
ATOM     36  O   LYS A   2      10.247   3.308  17.892  0.00  0.00    -0.273 OA
BRANCH  33  37
ATOM     37  CA  LYS A   2       8.486   2.664  16.417  0.00  0.00    +0.149 C 
BRANCH  37  39
ATOM     38  C   ILE A   1       8.837   3.916  14.359  0.00  0.00    +0.238 C 
ATOM     39  N   LYS A   2       9.306   3.077  15.291  0.00  0.00    -0.297 N 
ATOM     40  H   LYS A   2      10.277   2.714  15.207  0.00  0.00    +0.150 HD
ATOM     41  O   ILE A   1       7.663   4.294  14.290  0.00  0.00    -0.274 OA
BRANCH  38  42
ATOM     42  CA  ILE A   1       9.822   4.329  13.276  0.00  0.00    +0.145 C 
BRANCH  42  43
ATOM     43  N   ILE A   1       9.308   3.893  11.978  0.00  0.00    -0.238 NA
ATOM     44  H   ILE A   1       8.423   4.303  11.616  0.00  0.00    +0.142 HD
ENDBRANCH  42  43
BRANCH  42  45
ATOM     45  CB  ILE A   1       9.986   5.850  13.319  0.00  0.00    +0.025 C 
ATOM     46  CG2 ILE A   1      10.414   6.302  14.712  0.00  0.00    +0.002 C 
BRANCH  45  47
ATOM     47  CG1 ILE A   1      10.921   6.349  12.205  0.00  0.00    +0.002 C 
ATOM     48  CD1 ILE A   1      10.863   7.839  11.957  0.00  0.00    +0.000 C 
ENDBRANCH  45  47
ENDBRANCH  42  45
ENDBRANCH  38  42
ENDBRANCH  37  39
BRANCH  37  49
ATOM     49  CB  LYS A   2       8.459   1.149  16.571  0.00  0.00    +0.029 C 
BRANCH  49  50
ATOM     50  CG  LYS A   2       7.589   0.459  15.519  0.00  0.00    +0.000 C 
BRANCH  50  51
ATOM     51  CD  LYS A   2       7.609  -1.048  15.641  0.00  0.00    -0.024 C 
BRANCH  51  52
ATOM     52  CE  LYS A   2       6.699  -1.792  14.681  0.00  0.00    -0.086 C 
BRANCH  52  53
ATOM     53  NZ  LYS A   2       7.145  -1.694  13.278  0.00  0.00    +0.380 N 
ATOM     54  HZ1 LYS A   2       8.099  -2.098  13.190  0.00  0.00    -0.089 HD
ATOM     55  HZ2 LYS A   2       7.162  -0.695  12.990  0.00  0.00    -0.089 HD
ATOM     56  HZ3 LYS A   2       6.487  -2.220  12.669  0.00  0.00    -0.089 HD
ENDBRANCH  52  53
ENDBRANCH  51  52
ENDBRANCH  50  51
ENDBRANCH  49  50
ENDBRANCH  37  49
ENDBRANCH  33  37
ENDBRANCH  32  34
BRANCH  32  57
ATOM     57  CB  CYS A   3       9.026   5.923  19.513  0.00  0.00    +0.098 C 
ATOM     58  SG  CYS A   3       7.697   6.981  18.898  0.00  0.00    -0.080 S 
ENDBRANCH  32  57
ENDBRANCH  28  32
ENDBRANCH   1  29
BRANCH   1  59
ATOM     59  CB  PHE A   4       7.597   4.891  24.518  0.00  0.00    +0.055 C 
BRANCH  59  60
ATOM     60  CG  PHE A   4       8.227   3.643  25.067  0.00  0.00    -0.020 A 
ATOM     61  CD2 PHE A   4       8.761   3.692  26.351  0.00  0.00    -0.004 A 
ATOM     62  CE2 PHE A   4       9.371   2.593  26.908  0.00  0.00    -0.000 A 
ATOM     63  CZ  PHE A   4       9.495   1.426  26.187  0.00  0.00    -0.000 A 
ATOM     64  CE1 PHE A   4       8.973   1.372  24.905  0.00  0.00    -0.000 A 
ATOM     65  CD1 PHE A   4       8.370   2.478  24.353  0.00  0.00    -0.004 A 
ENDBRANCH  59  60
ENDBRANCH   1  59
TORSDOF 25
REMARK  Name = ../refined-set-2016/1gyx/1gyx_pocket.pdb
REMARK  104 active torsions:
REMARK  status: ('A' for Active; 'I' for Inactive)
REMARK    1  A    between atoms: _1  and  _3
REMARK    2  A    between atoms: _3  and  _4
REMARK    3  A    between atoms: _3  and  _6
REMARK    4  A    between atoms: _6  and  _7
REMARK    5  A    between atoms: _10  and  _12
REMARK    6  A    between atoms: _12  and  _13
REMARK    7  A    between atoms: _12  and  _15
REMARK    8  A    between atoms: _15  and  _16
REMARK    9  A    between atoms: _16  and  _17
REMARK   10  A    between atoms: _17  and  _18
REMARK   11  A    between atoms: _18  and  _19
REMARK   12  A    between atoms: _23  and  _25
REMARK   13  A    between atoms: _25  and  _26
REMARK   14  A    between atoms: _25  and  _28
REMARK   15  A    between atoms: _30  and  _32
REMARK   16  A    between atoms: _32  and  _33
REMARK   17  A    between atoms: _32  and  _35
REMARK   18  A    between atoms: _35  and  _36
REMARK   19  A    between atoms: _43  and  _44
REMARK   20  A    between atoms: _49  and  _51
REMARK   21  A    between atoms: _51  and  _52
REMARK   22  A    between atoms: _51  and  _54
REMARK   23  A    between atoms: _54  and  _55
REMARK   24  A    between atoms: _55  and  _56
REMARK   25  A    between atoms: _56  and  _57
REMARK   26  A    between atoms: _66  and  _68
REMARK   27  A    between atoms: _68  and  _69
REMARK   28  A    between atoms: _68  and  _71
REMARK   29  A    between atoms: _71  and  _72
REMARK   30  A    between atoms: _72  and  _73
REMARK   31  A    between atoms: _78  and  _80
REMARK   32  A    between atoms: _80  and  _81
REMARK   33  A    between atoms: _80  and  _83
REMARK   34  A    between atoms: _83  and  _84
REMARK   35  A    between atoms: _88  and  _89
REMARK   36  A    between atoms: _94  and  _96
REMARK   37  A    between atoms: _96  and  _97
REMARK   38  A    between atoms: _96  and  _99
REMARK   39  A    between atoms: _99  and  _100
REMARK   40  A    between atoms: _110  and  _112
REMARK   41  A    between atoms: _112  and  _113
REMARK   42  A    between atoms: _112  and  _115
REMARK   43  A    between atoms: _115  and  _116
REMARK   44  A    between atoms: _126  and  _128
REMARK   45  A    between atoms: _128  and  _129
REMARK   46  A    between atoms: _128  and  _131
REMARK   47  A    between atoms: _131  and  _132
REMARK   48  A    between atoms: _136  and  _137
REMARK   49  A    between atoms: _142  and  _144
REMARK   50  A    between atoms: _144  and  _145
REMARK   51  A    between atoms: _147  and  _149
REMARK   52  A    between atoms: _149  and  _150
REMARK   53  A    between atoms: _149  and  _152
REMARK   54  A    between atoms: _152  and  _153
REMARK   55  A    between atoms: _158  and  _159
REMARK   56  A    between atoms: _161  and  _163
REMARK   57  A    between atoms: _163  and  _164
REMARK   58  A    between atoms: _163  and  _166
REMARK   59  A    between atoms: _166  and  _167
REMARK   60  A    between atoms: _167  and  _168
REMARK   61  A    between atoms: _171  and  _172
REMARK   62  A    between atoms: _177  and  _179
REMARK   63  A    between atoms: _179  and  _180
REMARK   64  A    between atoms: _179  and  _182
REMARK   65  A    between atoms: _182  and  _183
REMARK   66  A    between atoms: _188  and  _190
REMARK   67  A    between atoms: _190  and  _191
REMARK   68  A    between atoms: _190  and  _193
REMARK   69  A    between atoms: _193  and  _194
REMARK   70  A    between atoms: _197  and  _199
REMARK   71  A    between atoms: _199  and  _200
REMARK   72  A    between atoms: _199  and  _202
REMARK   73  A    between atoms: _202  and  _203
REMARK   74  A    between atoms: _206  and  _208
REMARK   75  A    between atoms: _208  and  _209
REMARK   76  A    between atoms: _208  and  _211
REMARK   77  A    between atoms: _211  and  _212
REMARK   78  A    between atoms: _217  and  _219
REMARK   79  A    between atoms: _219  and  _220
REMARK   80  A    between atoms: _219  and  _222
REMARK   81  A    between atoms: _222  and  _223
REMARK   82  A    between atoms: _225  and  _227
REMARK   83  A    between atoms: _227  and  _228
REMARK   84  A    between atoms: _227  and  _230
REMARK   85  A    between atoms: _230  and  _231
REMARK   86  A    between atoms: _231  and  _232
REMARK   87  A    between atoms: _232  and  _233
REMARK   88  A    between atoms: _233  and  _234
REMARK   89  A    between atoms: _238  and  _240
REMARK   90  A    between atoms: _240  and  _241
REMARK   91  A    between atoms: _240  and  _243
REMARK   92  A    between atoms: _243  and  _244
REMARK   93  A    between atoms: _246  and  _248
REMARK   94  A    between atoms: _248  and  _249
REMARK   95  A    between atoms: _248  and  _251
REMARK   96  A    between atoms: _251  and  _252
REMARK   97  A    between atoms: _254  and  _256
REMARK   98  A    between atoms: _256  and  _257
REMARK   99  A    between atoms: _256  and  _259
REMARK  100  A    between atoms: _259  and  _260
REMARK  101  A    between atoms: _263  and  _265
REMARK  102  A    between atoms: _265  and  _266
REMARK  103  A    between atoms: _265  and  _268
REMARK  104  A    between atoms: _268  and  _269
REMARK                            x       y       z     vdW  Elec       q    Type
REMARK                         _______ _______ _______ _____ _____    ______ ____
ROOT
ATOM      1  CB  GLN A   1       3.980   2.461  14.629  0.00  0.00    +0.035 C 
ENDROOT
BRANCH   1   2
ATOM      2  CA  GLN A   1       3.947   3.914  15.105  0.00  0.00    +0.134 C 
BRANCH   2   3
ATOM      3  N   GLN A   1       4.879   4.716  14.312  0.00  0.00    -0.239 NA
ATOM      4  H   GLN A   1       5.893   4.489  14.343  0.00  0.00    +0.142 HD
ENDBRANCH   2   3
BRANCH   2   5
ATOM      5  C   GLN A   1       4.312   4.029  16.583  0.00  0.00    +0.224 C 
ATOM      6  O   GLN A   1       5.435   3.689  16.971  0.00  0.00    -0.287 OA
ENDBRANCH   2   5
ENDBRANCH   1   2
BRANCH   1   7
ATOM      7  CG  GLN A   1       3.833   2.281  13.124  0.00  0.00    +0.087 C 
BRANCH   7   8
ATOM      8  CD  GLN A   1       3.597   0.870  12.671  0.00  0.00    +0.219 C 
ATOM      9  NE2 GLN A   1       2.510   0.284  13.172  0.00  0.00    -0.329 N 
ATOM     10 HE21 GLN A   1       1.902   0.800  13.840  0.00  0.00    +0.145 HD
ATOM     11 HE22 GLN A   1       2.269  -0.689  12.895  0.00  0.00    +0.145 HD
ATOM     12  OE1 GLN A   1       4.324   0.263  11.876  0.00  0.00    -0.275 OA
ENDBRANCH   7   8
ENDBRANCH   1   7
TORSDOF 5
REMARK  Name = ../refined-set-2016/1gyx/1gyx_pocket.pdb
REMARK  104 active torsions:
REMARK  status: ('A' for Active; 'I' for Inactive)
REMARK    1  A    between atoms: _1  and  _3
REMARK    2  A    between atoms: _3  and  _4
REMARK    3  A    between atoms: _3  and  _6
REMARK    4  A    between atoms: _6  and  _7
REMARK    5  A    between atoms: _10  and  _12
REMARK    6  A    between atoms: _12  and  _13
REMARK    7  A    between atoms: _12  and  _15
REMARK    8  A    between atoms: _15  and  _16
REMARK    9  A    between atoms: _16  and  _17
REMARK   10  A    between atoms: _17  and  _18
REMARK   11  A    between atoms: _18  and  _19
REMARK   12  A    between atoms: _23  and  _25
REMARK   13  A    between atoms: _25  and  _26
REMARK   14  A    between atoms: _25  and  _28
REMARK   15  A    between atoms: _30  and  _32
REMARK   16  A    between atoms: _32  and  _33
REMARK   17  A    between atoms: _32  and  _35
REMARK   18  A    between atoms: _35  and  _36
REMARK   19  A    between atoms: _43  and  _44
REMARK   20  A    between atoms: _49  and  _51
REMARK   21  A    between atoms: _51  and  _52
REMARK   22  A    between atoms: _51  and  _54
REMARK   23  A    between atoms: _54  and  _55
REMARK   24  A    between atoms: _55  and  _56
REMARK   25  A    between atoms: _56  and  _57
REMARK   26  A    between atoms: _66  and  _68
REMARK   27  A    between atoms: _68  and  _69
REMARK   28  A    between atoms: _68  and  _71
REMARK   29  A    between atoms: _71  and  _72
REMARK   30  A    between atoms: _72  and  _73
REMARK   31  A    between atoms: _78  and  _80
REMARK   32  A    between atoms: _80  and  _81
REMARK   33  A    between atoms: _80  and  _83
REMARK   34  A    between atoms: _83  and  _84
REMARK   35  A    between atoms: _88  and  _89
REMARK   36  A    between atoms: _94  and  _96
REMARK   37  A    between atoms: _96  and  _97
REMARK   38  A    between atoms: _96  and  _99
REMARK   39  A    between atoms: _99  and  _100
REMARK   40  A    between atoms: _110  and  _112
REMARK   41  A    between atoms: _112  and  _113
REMARK   42  A    between atoms: _112  and  _115
REMARK   43  A    between atoms: _115  and  _116
REMARK   44  A    between atoms: _126  and  _128
REMARK   45  A    between atoms: _128  and  _129
REMARK   46  A    between atoms: _128  and  _131
REMARK   47  A    between atoms: _131  and  _132
REMARK   48  A    between atoms: _136  and  _137
REMARK   49  A    between atoms: _142  and  _144
REMARK   50  A    between atoms: _144  and  _145
REMARK   51  A    between atoms: _147  and  _149
REMARK   52  A    between atoms: _149  and  _150
REMARK   53  A    between atoms: _149  and  _152
REMARK   54  A    between atoms: _152  and  _153
REMARK   55  A    between atoms: _158  and  _159
REMARK   56  A    between atoms: _161  and  _163
REMARK   57  A    between atoms: _163  and  _164
REMARK   58  A    between atoms: _163  and  _166
REMARK   59  A    between atoms: _166  and  _167
REMARK   60  A    between atoms: _167  and  _168
REMARK   61  A    between atoms: _171  and  _172
REMARK   62  A    between atoms: _177  and  _179
REMARK   63  A    between atoms: _179  and  _180
REMARK   64  A    between atoms: _179  and  _182
REMARK   65  A    between atoms: _182  and  _183
REMARK   66  A    between atoms: _188  and  _190
REMARK   67  A    between atoms: _190  and  _191
REMARK   68  A    between atoms: _190  and  _193
REMARK   69  A    between atoms: _193  and  _194
REMARK   70  A    between atoms: _197  and  _199
REMARK   71  A    between atoms: _199  and  _200
REMARK   72  A    between atoms: _199  and  _202
REMARK   73  A    between atoms: _202  and  _203
REMARK   74  A    between atoms: _206  and  _208
REMARK   75  A    between atoms: _208  and  _209
REMARK   76  A    between atoms: _208  and  _211
REMARK   77  A    between atoms: _211  and  _212
REMARK   78  A    between atoms: _217  and  _219
REMARK   79  A    between atoms: _219  and  _220
REMARK   80  A    between atoms: _219  and  _222
REMARK   81  A    between atoms: _222  and  _223
REMARK   82  A    between atoms: _225  and  _227
REMARK   83  A    between atoms: _227  and  _228
REMARK   84  A    between atoms: _227  and  _230
REMARK   85  A    between atoms: _230  and  _231
REMARK   86  A    between atoms: _231  and  _232
REMARK   87  A    between atoms: _232  and  _233
REMARK   88  A    between atoms: _233  and  _234
REMARK   89  A    between atoms: _238  and  _240
REMARK   90  A    between atoms: _240  and  _241
REMARK   91  A    between atoms: _240  and  _243
REMARK   92  A    between atoms: _243  and  _244
REMARK   93  A    between atoms: _246  and  _248
REMARK   94  A    between atoms: _248  and  _249
REMARK   95  A    between atoms: _248  and  _251
REMARK   96  A    between atoms: _251  and  _252
REMARK   97  A    between atoms: _254  and  _256
REMARK   98  A    between atoms: _256  and  _257
REMARK   99  A    between atoms: _256  and  _259
REMARK  100  A    between atoms: _259  and  _260
REMARK  101  A    between atoms: _263  and  _265
REMARK  102  A    between atoms: _265  and  _266
REMARK  103  A    between atoms: _265  and  _268
REMARK  104  A    between atoms: _268  and  _269
REMARK                            x       y       z     vdW  Elec       q    Type
REMARK                         _______ _______ _______ _____ _____    ______ ____
ROOT
ATOM      1  CA  ILE A   1       3.789   1.499  20.945  0.00  0.00    +0.133 C 
ENDROOT
BRANCH   1   2
ATOM      2  N   ILE A   1       4.008   2.798  20.320  0.00  0.00    -0.239 NA
ATOM      3  H   ILE A   1       4.900   3.296  20.515  0.00  0.00    +0.142 HD
ENDBRANCH   1   2
BRANCH   1   4
ATOM      4  C   ILE A   1       3.842   1.687  22.458  0.00  0.00    +0.224 C 
ATOM      5  O   ILE A   1       4.814   2.252  22.984  0.00  0.00    -0.287 OA
ENDBRANCH   1   4
BRANCH   1   6
ATOM      6  CB  ILE A   1       4.947   0.534  20.565  0.00  0.00    +0.023 C 
ATOM      7  CG2 ILE A   1       4.731  -0.834  21.207  0.00  0.00    +0.002 C 
BRANCH   6   8
ATOM      8  CG1 ILE A   1       5.200   0.428  19.066  0.00  0.00    +0.002 C 
ATOM      9  CD1 ILE A   1       4.040  -0.120  18.285  0.00  0.00    +0.000 C 
ENDBRANCH   6   8
ENDBRANCH   1   6
TORSDOF 4
REMARK  Name = ../refined-set-2016/1gyx/1gyx_pocket.pdb
REMARK  104 active torsions:
REMARK  status: ('A' for Active; 'I' for Inactive)
REMARK    1  A    between atoms: _1  and  _3
REMARK    2  A    between atoms: _3  and  _4
REMARK    3  A    between atoms: _3  and  _6
REMARK    4  A    between atoms: _6  and  _7
REMARK    5  A    between atoms: _10  and  _12
REMARK    6  A    between atoms: _12  and  _13
REMARK    7  A    between atoms: _12  and  _15
REMARK    8  A    between atoms: _15  and  _16
REMARK    9  A    between atoms: _16  and  _17
REMARK   10  A    between atoms: _17  and  _18
REMARK   11  A    between atoms: _18  and  _19
REMARK   12  A    between atoms: _23  and  _25
REMARK   13  A    between atoms: _25  and  _26
REMARK   14  A    between atoms: _25  and  _28
REMARK   15  A    between atoms: _30  and  _32
REMARK   16  A    between atoms: _32  and  _33
REMARK   17  A    between atoms: _32  and  _35
REMARK   18  A    between atoms: _35  and  _36
REMARK   19  A    between atoms: _43  and  _44
REMARK   20  A    between atoms: _49  and  _51
REMARK   21  A    between atoms: _51  and  _52
REMARK   22  A    between atoms: _51  and  _54
REMARK   23  A    between atoms: _54  and  _55
REMARK   24  A    between atoms: _55  and  _56
REMARK   25  A    between atoms: _56  and  _57
REMARK   26  A    between atoms: _66  and  _68
REMARK   27  A    between atoms: _68  and  _69
REMARK   28  A    between atoms: _68  and  _71
REMARK   29  A    between atoms: _71  and  _72
REMARK   30  A    between atoms: _72  and  _73
REMARK   31  A    between atoms: _78  and  _80
REMARK   32  A    between atoms: _80  and  _81
REMARK   33  A    between atoms: _80  and  _83
REMARK   34  A    between atoms: _83  and  _84
REMARK   35  A    between atoms: _88  and  _89
REMARK   36  A    between atoms: _94  and  _96
REMARK   37  A    between atoms: _96  and  _97
REMARK   38  A    between atoms: _96  and  _99
REMARK   39  A    between atoms: _99  and  _100
REMARK   40  A    between atoms: _110  and  _112
REMARK   41  A    between atoms: _112  and  _113
REMARK   42  A    between atoms: _112  and  _115
REMARK   43  A    between atoms: _115  and  _116
REMARK   44  A    between atoms: _126  and  _128
REMARK   45  A    between atoms: _128  and  _129
REMARK   46  A    between atoms: _128  and  _131
REMARK   47  A    between atoms: _131  and  _132
REMARK   48  A    between atoms: _136  and  _137
REMARK   49  A    between atoms: _142  and  _144
REMARK   50  A    between atoms: _144  and  _145
REMARK   51  A    between atoms: _147  and  _149
REMARK   52  A    between atoms: _149  and  _150
REMARK   53  A    between atoms: _149  and  _152
REMARK   54  A    between atoms: _152  and  _153
REMARK   55  A    between atoms: _158  and  _159
REMARK   56  A    between atoms: _161  and  _163
REMARK   57  A    between atoms: _163  and  _164
REMARK   58  A    between atoms: _163  and  _166
REMARK   59  A    between atoms: _166  and  _167
REMARK   60  A    between atoms: _167  and  _168
REMARK   61  A    between atoms: _171  and  _172
REMARK   62  A    between atoms: _177  and  _179
REMARK   63  A    between atoms: _179  and  _180
REMARK   64  A    between atoms: _179  and  _182
REMARK   65  A    between atoms: _182  and  _183
REMARK   66  A    between atoms: _188  and  _190
REMARK   67  A    between atoms: _190  and  _191
REMARK   68  A    between atoms: _190  and  _193
REMARK   69  A    between atoms: _193  and  _194
REMARK   70  A    between atoms: _197  and  _199
REMARK   71  A    between atoms: _199  and  _200
REMARK   72  A    between atoms: _199  and  _202
REMARK   73  A    between atoms: _202  and  _203
REMARK   74  A    between atoms: _206  and  _208
REMARK   75  A    between atoms: _208  and  _209
REMARK   76  A    between atoms: _208  and  _211
REMARK   77  A    between atoms: _211  and  _212
REMARK   78  A    between atoms: _217  and  _219
REMARK   79  A    between atoms: _219  and  _220
REMARK   80  A    between atoms: _219  and  _222
REMARK   81  A    between atoms: _222  and  _223
REMARK   82  A    between atoms: _225  and  _227
REMARK   83  A    between atoms: _227  and  _228
REMARK   84  A    between atoms: _227  and  _230
REMARK   85  A    between atoms: _230  and  _231
REMARK   86  A    between atoms: _231  and  _232
REMARK   87  A    between atoms: _232  and  _233
REMARK   88  A    between atoms: _233  and  _234
REMARK   89  A    between atoms: _238  and  _240
REMARK   90  A    between atoms: _240  and  _241
REMARK   91  A    between atoms: _240  and  _243
REMARK   92  A    between atoms: _243  and  _244
REMARK   93  A    between atoms: _246  and  _248
REMARK   94  A    between atoms: _248  and  _249
REMARK   95  A    between atoms: _248  and  _251
REMARK   96  A    between atoms: _251  and  _252
REMARK   97  A    between atoms: _254  and  _256
REMARK   98  A    between atoms: _256  and  _257
REMARK   99  A    between atoms: _256  and  _259
REMARK  100  A    between atoms: _259  and  _260
REMARK  101  A    between atoms: _263  and  _265
REMARK  102  A    between atoms: _265  and  _266
REMARK  103  A    between atoms: _265  and  _268
REMARK  104  A    between atoms: _268  and  _269
REMARK                            x       y       z     vdW  Elec       q    Type
REMARK                         _______ _______ _______ _____ _____    ______ ____
ROOT
ATOM      1  N   PRO A   1       4.517   0.925  26.298  0.00  0.00    -0.212 NA
ATOM      2  CD  PRO A   1       4.247   2.183  27.042  0.00  0.00    +0.089 C 
ATOM      3  CG  PRO A   1       5.407   2.257  28.002  0.00  0.00    +0.021 C 
ATOM      4  CB  PRO A   1       5.971   0.903  28.146  0.00  0.00    +0.027 C 
ATOM      5  CA  PRO A   1       5.656   0.206  26.831  0.00  0.00    +0.137 C 
ENDROOT
BRANCH   5   6
ATOM      6  C   PRO A   1       5.435  -1.271  27.044  0.00  0.00    +0.224 C 
ATOM      7  O   PRO A   1       6.316  -2.087  26.769  0.00  0.00    -0.287 OA
ENDBRANCH   5   6
TORSDOF 1
REMARK  Name = ../refined-set-2016/1gyx/1gyx_pocket.pdb
REMARK  104 active torsions:
REMARK  status: ('A' for Active; 'I' for Inactive)
REMARK    1  A    between atoms: _1  and  _3
REMARK    2  A    between atoms: _3  and  _4
REMARK    3  A    between atoms: _3  and  _6
REMARK    4  A    between atoms: _6  and  _7
REMARK    5  A    between atoms: _10  and  _12
REMARK    6  A    between atoms: _12  and  _13
REMARK    7  A    between atoms: _12  and  _15
REMARK    8  A    between atoms: _15  and  _16
REMARK    9  A    between atoms: _16  and  _17
REMARK   10  A    between atoms: _17  and  _18
REMARK   11  A    between atoms: _18  and  _19
REMARK   12  A    between atoms: _23  and  _25
REMARK   13  A    between atoms: _25  and  _26
REMARK   14  A    between atoms: _25  and  _28
REMARK   15  A    between atoms: _30  and  _32
REMARK   16  A    between atoms: _32  and  _33
REMARK   17  A    between atoms: _32  and  _35
REMARK   18  A    between atoms: _35  and  _36
REMARK   19  A    between atoms: _43  and  _44
REMARK   20  A    between atoms: _49  and  _51
REMARK   21  A    between atoms: _51  and  _52
REMARK   22  A    between atoms: _51  and  _54
REMARK   23  A    between atoms: _54  and  _55
REMARK   24  A    between atoms: _55  and  _56
REMARK   25  A    between atoms: _56  and  _57
REMARK   26  A    between atoms: _66  and  _68
REMARK   27  A    between atoms: _68  and  _69
REMARK   28  A    between atoms: _68  and  _71
REMARK   29  A    between atoms: _71  and  _72
REMARK   30  A    between atoms: _72  and  _73
REMARK   31  A    between atoms: _78  and  _80
REMARK   32  A    between atoms: _80  and  _81
REMARK   33  A    between atoms: _80  and  _83
REMARK   34  A    between atoms: _83  and  _84
REMARK   35  A    between atoms: _88  and  _89
REMARK   36  A    between atoms: _94  and  _96
REMARK   37  A    between atoms: _96  and  _97
REMARK   38  A    between atoms: _96  and  _99
REMARK   39  A    between atoms: _99  and  _100
REMARK   40  A    between atoms: _110  and  _112
REMARK   41  A    between atoms: _112  and  _113
REMARK   42  A    between atoms: _112  and  _115
REMARK   43  A    between atoms: _115  and  _116
REMARK   44  A    between atoms: _126  and  _128
REMARK   45  A    between atoms: _128  and  _129
REMARK   46  A    between atoms: _128  and  _131
REMARK   47  A    between atoms: _131  and  _132
REMARK   48  A    between atoms: _136  and  _137
REMARK   49  A    between atoms: _142  and  _144
REMARK   50  A    between atoms: _144  and  _145
REMARK   51  A    between atoms: _147  and  _149
REMARK   52  A    between atoms: _149  and  _150
REMARK   53  A    between atoms: _149  and  _152
REMARK   54  A    between atoms: _152  and  _153
REMARK   55  A    between atoms: _158  and  _159
REMARK   56  A    between atoms: _161  and  _163
REMARK   57  A    between atoms: _163  and  _164
REMARK   58  A    between atoms: _163  and  _166
REMARK   59  A    between atoms: _166  and  _167
REMARK   60  A    between atoms: _167  and  _168
REMARK   61  A    between atoms: _171  and  _172
REMARK   62  A    between atoms: _177  and  _179
REMARK   63  A    between atoms: _179  and  _180
REMARK   64  A    between atoms: _179  and  _182
REMARK   65  A    between atoms: _182  and  _183
REMARK   66  A    between atoms: _188  and  _190
REMARK   67  A    between atoms: _190  and  _191
REMARK   68  A    between atoms: _190  and  _193
REMARK   69  A    between atoms: _193  and  _194
REMARK   70  A    between atoms: _197  and  _199
REMARK   71  A    between atoms: _199  and  _200
REMARK   72  A    between atoms: _199  and  _202
REMARK   73  A    between atoms: _202  and  _203
REMARK   74  A    between atoms: _206  and  _208
REMARK   75  A    between atoms: _208  and  _209
REMARK   76  A    between atoms: _208  and  _211
REMARK   77  A    between atoms: _211  and  _212
REMARK   78  A    between atoms: _217  and  _219
REMARK   79  A    between atoms: _219  and  _220
REMARK   80  A    between atoms: _219  and  _222
REMARK   81  A    between atoms: _222  and  _223
REMARK   82  A    between atoms: _225  and  _227
REMARK   83  A    between atoms: _227  and  _228
REMARK   84  A    between atoms: _227  and  _230
REMARK   85  A    between atoms: _230  and  _231
REMARK   86  A    between atoms: _231  and  _232
REMARK   87  A    between atoms: _232  and  _233
REMARK   88  A    between atoms: _233  and  _234
REMARK   89  A    between atoms: _238  and  _240
REMARK   90  A    between atoms: _240  and  _241
REMARK   91  A    between atoms: _240  and  _243
REMARK   92  A    between atoms: _243  and  _244
REMARK   93  A    between atoms: _246  and  _248
REMARK   94  A    between atoms: _248  and  _249
REMARK   95  A    between atoms: _248  and  _251
REMARK   96  A    between atoms: _251  and  _252
REMARK   97  A    between atoms: _254  and  _256
REMARK   98  A    between atoms: _256  and  _257
REMARK   99  A    between atoms: _256  and  _259
REMARK  100  A    between atoms: _259  and  _260
REMARK  101  A    between atoms: _263  and  _265
REMARK  102  A    between atoms: _265  and  _266
REMARK  103  A    between atoms: _265  and  _268
REMARK  104  A    between atoms: _268  and  _269
REMARK                            x       y       z     vdW  Elec       q    Type
REMARK                         _______ _______ _______ _____ _____    ______ ____
ROOT
ATOM      1  CG  TRP A   1       9.649  -1.978  23.360  0.00  0.00    -0.002 A 
ATOM      2  CD1 TRP A   1      10.934  -2.392  23.527  0.00  0.00    +0.068 A 
ATOM      3  NE1 TRP A   1      11.742  -1.805  22.581  0.00  0.00    -0.352 N 
ATOM      4  HE1 TRP A   1      12.766  -1.958  22.479  0.00  0.00    +0.166 HD
ATOM      5  CE2 TRP A   1      10.976  -0.987  21.796  0.00  0.00    +0.056 A 
ATOM      6  CZ2 TRP A   1      11.366  -0.192  20.726  0.00  0.00    +0.017 A 
ATOM      7  CH2 TRP A   1      10.400   0.553  20.108  0.00  0.00    +0.001 A 
ATOM      8  CZ3 TRP A   1       9.052   0.478  20.515  0.00  0.00    +0.000 A 
ATOM      9  CE3 TRP A   1       8.675  -0.301  21.603  0.00  0.00    +0.001 A 
ATOM     10  CD2 TRP A   1       9.644  -1.072  22.239  0.00  0.00    +0.013 A 
ENDROOT
BRANCH   1  11
ATOM     11  CB  TRP A   1       8.451  -2.360  24.172  0.00  0.00    +0.053 C 
BRANCH  11  12
ATOM     12  CA  TRP A   1       7.552  -3.322  23.395  0.00  0.00    +0.137 C 
BRANCH  12  13
ATOM     13  N   TRP A   1       6.210  -3.399  24.024  0.00  0.00    -0.239 NA
ATOM     14  H   TRP A   1       6.073  -3.061  24.998  0.00  0.00    +0.142 HD
ENDBRANCH  12  13
BRANCH  12  15
ATOM     15  C   TRP A   1       8.185  -4.693  23.327  0.00  0.00    +0.224 C 
ATOM     16  O   TRP A   1       8.997  -4.919  22.420  0.00  0.00    -0.287 OA
ENDBRANCH  12  15
ENDBRANCH  11  12
ENDBRANCH   1  11
TORSDOF 4
REMARK  Name = ../refined-set-2016/1gyx/1gyx_pocket.pdb
REMARK  104 active torsions:
REMARK  status: ('A' for Active; 'I' for Inactive)
REMARK    1  A    between atoms: _1  and  _3
REMARK    2  A    between atoms: _3  and  _4
REMARK    3  A    between atoms: _3  and  _6
REMARK    4  A    between atoms: _6  and  _7
REMARK    5  A    between atoms: _10  and  _12
REMARK    6  A    between atoms: _12  and  _13
REMARK    7  A    between atoms: _12  and  _15
REMARK    8  A    between atoms: _15  and  _16
REMARK    9  A    between atoms: _16  and  _17
REMARK   10  A    between atoms: _17  and  _18
REMARK   11  A    between atoms: _18  and  _19
REMARK   12  A    between atoms: _23  and  _25
REMARK   13  A    between atoms: _25  and  _26
REMARK   14  A    between atoms: _25  and  _28
REMARK   15  A    between atoms: _30  and  _32
REMARK   16  A    between atoms: _32  and  _33
REMARK   17  A    between atoms: _32  and  _35
REMARK   18  A    between atoms: _35  and  _36
REMARK   19  A    between atoms: _43  and  _44
REMARK   20  A    between atoms: _49  and  _51
REMARK   21  A    between atoms: _51  and  _52
REMARK   22  A    between atoms: _51  and  _54
REMARK   23  A    between atoms: _54  and  _55
REMARK   24  A    between atoms: _55  and  _56
REMARK   25  A    between atoms: _56  and  _57
REMARK   26  A    between atoms: _66  and  _68
REMARK   27  A    between atoms: _68  and  _69
REMARK   28  A    between atoms: _68  and  _71
REMARK   29  A    between atoms: _71  and  _72
REMARK   30  A    between atoms: _72  and  _73
REMARK   31  A    between atoms: _78  and  _80
REMARK   32  A    between atoms: _80  and  _81
REMARK   33  A    between atoms: _80  and  _83
REMARK   34  A    between atoms: _83  and  _84
REMARK   35  A    between atoms: _88  and  _89
REMARK   36  A    between atoms: _94  and  _96
REMARK   37  A    between atoms: _96  and  _97
REMARK   38  A    between atoms: _96  and  _99
REMARK   39  A    between atoms: _99  and  _100
REMARK   40  A    between atoms: _110  and  _112
REMARK   41  A    between atoms: _112  and  _113
REMARK   42  A    between atoms: _112  and  _115
REMARK   43  A    between atoms: _115  and  _116
REMARK   44  A    between atoms: _126  and  _128
REMARK   45  A    between atoms: _128  and  _129
REMARK   46  A    between atoms: _128  and  _131
REMARK   47  A    between atoms: _131  and  _132
REMARK   48  A    between atoms: _136  and  _137
REMARK   49  A    between atoms: _142  and  _144
REMARK   50  A    between atoms: _144  and  _145
REMARK   51  A    between atoms: _147  and  _149
REMARK   52  A    between atoms: _149  and  _150
REMARK   53  A    between atoms: _149  and  _152
REMARK   54  A    between atoms: _152  and  _153
REMARK   55  A    between atoms: _158  and  _159
REMARK   56  A    between atoms: _161  and  _163
REMARK   57  A    between atoms: _163  and  _164
REMARK   58  A    between atoms: _163  and  _166
REMARK   59  A    between atoms: _166  and  _167
REMARK   60  A    between atoms: _167  and  _168
REMARK   61  A    between atoms: _171  and  _172
REMARK   62  A    between atoms: _177  and  _179
REMARK   63  A    between atoms: _179  and  _180
REMARK   64  A    between atoms: _179  and  _182
REMARK   65  A    between atoms: _182  and  _183
REMARK   66  A    between atoms: _188  and  _190
REMARK   67  A    between atoms: _190  and  _191
REMARK   68  A    between atoms: _190  and  _193
REMARK   69  A    between atoms: _193  and  _194
REMARK   70  A    between atoms: _197  and  _199
REMARK   71  A    between atoms: _199  and  _200
REMARK   72  A    between atoms: _199  and  _202
REMARK   73  A    between atoms: _202  and  _203
REMARK   74  A    between atoms: _206  and  _208
REMARK   75  A    between atoms: _208  and  _209
REMARK   76  A    between atoms: _208  and  _211
REMARK   77  A    between atoms: _211  and  _212
REMARK   78  A    between atoms: _217  and  _219
REMARK   79  A    between atoms: _219  and  _220
REMARK   80  A    between atoms: _219  and  _222
REMARK   81  A    between atoms: _222  and  _223
REMARK   82  A    between atoms: _225  and  _227
REMARK   83  A    between atoms: _227  and  _228
REMARK   84  A    between atoms: _227  and  _230
REMARK   85  A    between atoms: _230  and  _231
REMARK   86  A    between atoms: _231  and  _232
REMARK   87  A    between atoms: _232  and  _233
REMARK   88  A    between atoms: _233  and  _234
REMARK   89  A    between atoms: _238  and  _240
REMARK   90  A    between atoms: _240  and  _241
REMARK   91  A    between atoms: _240  and  _243
REMARK   92  A    between atoms: _243  and  _244
REMARK   93  A    between atoms: _246  and  _248
REMARK   94  A    between atoms: _248  and  _249
REMARK   95  A    between atoms: _248  and  _251
REMARK   96  A    between atoms: _251  and  _252
REMARK   97  A    between atoms: _254  and  _256
REMARK   98  A    between atoms: _256  and  _257
REMARK   99  A    between atoms: _256  and  _259
REMARK  100  A    between atoms: _259  and  _260
REMARK  101  A    between atoms: _263  and  _265
REMARK  102  A    between atoms: _265  and  _266
REMARK  103  A    between atoms: _265  and  _268
REMARK  104  A    between atoms: _268  and  _269
REMARK                            x       y       z     vdW  Elec       q    Type
REMARK                         _______ _______ _______ _____ _____    ______ ____
ROOT
ATOM      1  CG  TRP A   1      13.622  -7.572  22.670  0.00  0.00    -0.002 A 
ATOM      2  CD1 TRP A   1      13.795  -8.898  22.930  0.00  0.00    +0.068 A 
ATOM      3  NE1 TRP A   1      15.127  -9.134  23.151  0.00  0.00    -0.352 N 
ATOM      4  HE1 TRP A   1      15.534 -10.065  23.373  0.00  0.00    +0.166 HD
ATOM      5  CE2 TRP A   1      15.846  -7.978  23.040  0.00  0.00    +0.056 A 
ATOM      6  CZ2 TRP A   1      17.213  -7.723  23.190  0.00  0.00    +0.017 A 
ATOM      7  CH2 TRP A   1      17.618  -6.426  23.035  0.00  0.00    +0.001 A 
ATOM      8  CZ3 TRP A   1      16.720  -5.387  22.774  0.00  0.00    +0.000 A 
ATOM      9  CE3 TRP A   1      15.375  -5.650  22.614  0.00  0.00    +0.001 A 
ATOM     10  CD2 TRP A   1      14.915  -6.960  22.769  0.00  0.00    +0.013 A 
ENDROOT
BRANCH   1  11
ATOM     11  CB  TRP A   1      12.309  -6.900  22.345  0.00  0.00    +0.053 C 
BRANCH  11  12
ATOM     12  CA  TRP A   1      12.104  -6.797  20.816  0.00  0.00    +0.137 C 
BRANCH  12  13
ATOM     13  N   TRP A   1      10.811  -6.204  20.515  0.00  0.00    -0.239 NA
ATOM     14  H   TRP A   1      10.208  -5.871  21.294  0.00  0.00    +0.142 HD
ENDBRANCH  12  13
BRANCH  12  15
ATOM     15  C   TRP A   1      12.183  -8.205  20.208  0.00  0.00    +0.224 C 
ATOM     16  O   TRP A   1      13.146  -8.595  19.546  0.00  0.00    -0.287 OA
ENDBRANCH  12  15
ENDBRANCH  11  12
ENDBRANCH   1  11
TORSDOF 4
REMARK  Name = ../refined-set-2016/1gyx/1gyx_pocket.pdb
REMARK  104 active torsions:
REMARK  status: ('A' for Active; 'I' for Inactive)
REMARK    1  A    between atoms: _1  and  _3
REMARK    2  A    between atoms: _3  and  _4
REMARK    3  A    between atoms: _3  and  _6
REMARK    4  A    between atoms: _6  and  _7
REMARK    5  A    between atoms: _10  and  _12
REMARK    6  A    between atoms: _12  and  _13
REMARK    7  A    between atoms: _12  and  _15
REMARK    8  A    between atoms: _15  and  _16
REMARK    9  A    between atoms: _16  and  _17
REMARK   10  A    between atoms: _17  and  _18
REMARK   11  A    between atoms: _18  and  _19
REMARK   12  A    between atoms: _23  and  _25
REMARK   13  A    between atoms: _25  and  _26
REMARK   14  A    between atoms: _25  and  _28
REMARK   15  A    between atoms: _30  and  _32
REMARK   16  A    between atoms: _32  and  _33
REMARK   17  A    between atoms: _32  and  _35
REMARK   18  A    between atoms: _35  and  _36
REMARK   19  A    between atoms: _43  and  _44
REMARK   20  A    between atoms: _49  and  _51
REMARK   21  A    between atoms: _51  and  _52
REMARK   22  A    between atoms: _51  and  _54
REMARK   23  A    between atoms: _54  and  _55
REMARK   24  A    between atoms: _55  and  _56
REMARK   25  A    between atoms: _56  and  _57
REMARK   26  A    between atoms: _66  and  _68
REMARK   27  A    between atoms: _68  and  _69
REMARK   28  A    between atoms: _68  and  _71
REMARK   29  A    between atoms: _71  and  _72
REMARK   30  A    between atoms: _72  and  _73
REMARK   31  A    between atoms: _78  and  _80
REMARK   32  A    between atoms: _80  and  _81
REMARK   33  A    between atoms: _80  and  _83
REMARK   34  A    between atoms: _83  and  _84
REMARK   35  A    between atoms: _88  and  _89
REMARK   36  A    between atoms: _94  and  _96
REMARK   37  A    between atoms: _96  and  _97
REMARK   38  A    between atoms: _96  and  _99
REMARK   39  A    between atoms: _99  and  _100
REMARK   40  A    between atoms: _110  and  _112
REMARK   41  A    between atoms: _112  and  _113
REMARK   42  A    between atoms: _112  and  _115
REMARK   43  A    between atoms: _115  and  _116
REMARK   44  A    between atoms: _126  and  _128
REMARK   45  A    between atoms: _128  and  _129
REMARK   46  A    between atoms: _128  and  _131
REMARK   47  A    between atoms: _131  and  _132
REMARK   48  A    between atoms: _136  and  _137
REMARK   49  A    between atoms: _142  and  _144
REMARK   50  A    between atoms: _144  and  _145
REMARK   51  A    between atoms: _147  and  _149
REMARK   52  A    between atoms: _149  and  _150
REMARK   53  A    between atoms: _149  and  _152
REMARK   54  A    between atoms: _152  and  _153
REMARK   55  A    between atoms: _158  and  _159
REMARK   56  A    between atoms: _161  and  _163
REMARK   57  A    between atoms: _163  and  _164
REMARK   58  A    between atoms: _163  and  _166
REMARK   59  A    between atoms: _166  and  _167
REMARK   60  A    between atoms: _167  and  _168
REMARK   61  A    between atoms: _171  and  _172
REMARK   62  A    between atoms: _177  and  _179
REMARK   63  A    between atoms: _179  and  _180
REMARK   64  A    between atoms: _179  and  _182
REMARK   65  A    between atoms: _182  and  _183
REMARK   66  A    between atoms: _188  and  _190
REMARK   67  A    between atoms: _190  and  _191
REMARK   68  A    between atoms: _190  and  _193
REMARK   69  A    between atoms: _193  and  _194
REMARK   70  A    between atoms: _197  and  _199
REMARK   71  A    between atoms: _199  and  _200
REMARK   72  A    between atoms: _199  and  _202
REMARK   73  A    between atoms: _202  and  _203
REMARK   74  A    between atoms: _206  and  _208
REMARK   75  A    between atoms: _208  and  _209
REMARK   76  A    between atoms: _208  and  _211
REMARK   77  A    between atoms: _211  and  _212
REMARK   78  A    between atoms: _217  and  _219
REMARK   79  A    between atoms: _219  and  _220
REMARK   80  A    between atoms: _219  and  _222
REMARK   81  A    between atoms: _222  and  _223
REMARK   82  A    between atoms: _225  and  _227
REMARK   83  A    between atoms: _227  and  _228
REMARK   84  A    between atoms: _227  and  _230
REMARK   85  A    between atoms: _230  and  _231
REMARK   86  A    between atoms: _231  and  _232
REMARK   87  A    between atoms: _232  and  _233
REMARK   88  A    between atoms: _233  and  _234
REMARK   89  A    between atoms: _238  and  _240
REMARK   90  A    between atoms: _240  and  _241
REMARK   91  A    between atoms: _240  and  _243
REMARK   92  A    between atoms: _243  and  _244
REMARK   93  A    between atoms: _246  and  _248
REMARK   94  A    between atoms: _248  and  _249
REMARK   95  A    between atoms: _248  and  _251
REMARK   96  A    between atoms: _251  and  _252
REMARK   97  A    between atoms: _254  and  _256
REMARK   98  A    between atoms: _256  and  _257
REMARK   99  A    between atoms: _256  and  _259
REMARK  100  A    between atoms: _259  and  _260
REMARK  101  A    between atoms: _263  and  _265
REMARK  102  A    between atoms: _265  and  _266
REMARK  103  A    between atoms: _265  and  _268
REMARK  104  A    between atoms: _268  and  _269
REMARK                            x       y       z     vdW  Elec       q    Type
REMARK                         _______ _______ _______ _____ _____    ______ ____
ROOT
ATOM      1  CA  ILE A   1      15.239  -6.272  17.407  0.00  0.00    +0.133 C 
ENDROOT
BRANCH   1   2
ATOM      2  N   ILE A   1      13.932  -6.682  16.925  0.00  0.00    -0.239 NA
ATOM      3  H   ILE A   1      13.142  -6.763  17.596  0.00  0.00    +0.142 HD
ENDBRANCH   1   2
BRANCH   1   4
ATOM      4  CB  ILE A   1      15.115  -5.348  18.641  0.00  0.00    +0.023 C 
ATOM      5  CG2 ILE A   1      16.501  -4.858  19.041  0.00  0.00    +0.002 C 
BRANCH   4   6
ATOM      6  CG1 ILE A   1      14.174  -4.167  18.348  0.00  0.00    +0.002 C 
ATOM      7  CD1 ILE A   1      13.859  -3.303  19.538  0.00  0.00    +0.000 C 
ENDBRANCH   4   6
ENDBRANCH   1   4
BRANCH   1   8
ATOM      8  C   ILE A   1      16.168  -7.447  17.633  0.00  0.00    +0.224 C 
ATOM      9  O   ILE A   1      17.257  -7.528  17.046  0.00  0.00    -0.287 OA
ENDBRANCH   1   8
TORSDOF 4
REMARK  Name = ../refined-set-2016/1gyx/1gyx_pocket.pdb
REMARK  104 active torsions:
REMARK  status: ('A' for Active; 'I' for Inactive)
REMARK    1  A    between atoms: _1  and  _3
REMARK    2  A    between atoms: _3  and  _4
REMARK    3  A    between atoms: _3  and  _6
REMARK    4  A    between atoms: _6  and  _7
REMARK    5  A    between atoms: _10  and  _12
REMARK    6  A    between atoms: _12  and  _13
REMARK    7  A    between atoms: _12  and  _15
REMARK    8  A    between atoms: _15  and  _16
REMARK    9  A    between atoms: _16  and  _17
REMARK   10  A    between atoms: _17  and  _18
REMARK   11  A    between atoms: _18  and  _19
REMARK   12  A    between atoms: _23  and  _25
REMARK   13  A    between atoms: _25  and  _26
REMARK   14  A    between atoms: _25  and  _28
REMARK   15  A    between atoms: _30  and  _32
REMARK   16  A    between atoms: _32  and  _33
REMARK   17  A    between atoms: _32  and  _35
REMARK   18  A    between atoms: _35  and  _36
REMARK   19  A    between atoms: _43  and  _44
REMARK   20  A    between atoms: _49  and  _51
REMARK   21  A    between atoms: _51  and  _52
REMARK   22  A    between atoms: _51  and  _54
REMARK   23  A    between atoms: _54  and  _55
REMARK   24  A    between atoms: _55  and  _56
REMARK   25  A    between atoms: _56  and  _57
REMARK   26  A    between atoms: _66  and  _68
REMARK   27  A    between atoms: _68  and  _69
REMARK   28  A    between atoms: _68  and  _71
REMARK   29  A    between atoms: _71  and  _72
REMARK   30  A    between atoms: _72  and  _73
REMARK   31  A    between atoms: _78  and  _80
REMARK   32  A    between atoms: _80  and  _81
REMARK   33  A    between atoms: _80  and  _83
REMARK   34  A    between atoms: _83  and  _84
REMARK   35  A    between atoms: _88  and  _89
REMARK   36  A    between atoms: _94  and  _96
REMARK   37  A    between atoms: _96  and  _97
REMARK   38  A    between atoms: _96  and  _99
REMARK   39  A    between atoms: _99  and  _100
REMARK   40  A    between atoms: _110  and  _112
REMARK   41  A    between atoms: _112  and  _113
REMARK   42  A    between atoms: _112  and  _115
REMARK   43  A    between atoms: _115  and  _116
REMARK   44  A    between atoms: _126  and  _128
REMARK   45  A    between atoms: _128  and  _129
REMARK   46  A    between atoms: _128  and  _131
REMARK   47  A    between atoms: _131  and  _132
REMARK   48  A    between atoms: _136  and  _137
REMARK   49  A    between atoms: _142  and  _144
REMARK   50  A    between atoms: _144  and  _145
REMARK   51  A    between atoms: _147  and  _149
REMARK   52  A    between atoms: _149  and  _150
REMARK   53  A    between atoms: _149  and  _152
REMARK   54  A    between atoms: _152  and  _153
REMARK   55  A    between atoms: _158  and  _159
REMARK   56  A    between atoms: _161  and  _163
REMARK   57  A    between atoms: _163  and  _164
REMARK   58  A    between atoms: _163  and  _166
REMARK   59  A    between atoms: _166  and  _167
REMARK   60  A    between atoms: _167  and  _168
REMARK   61  A    between atoms: _171  and  _172
REMARK   62  A    between atoms: _177  and  _179
REMARK   63  A    between atoms: _179  and  _180
REMARK   64  A    between atoms: _179  and  _182
REMARK   65  A    between atoms: _182  and  _183
REMARK   66  A    between atoms: _188  and  _190
REMARK   67  A    between atoms: _190  and  _191
REMARK   68  A    between atoms: _190  and  _193
REMARK   69  A    between atoms: _193  and  _194
REMARK   70  A    between atoms: _197  and  _199
REMARK   71  A    between atoms: _199  and  _200
REMARK   72  A    between atoms: _199  and  _202
REMARK   73  A    between atoms: _202  and  _203
REMARK   74  A    between atoms: _206  and  _208
REMARK   75  A    between atoms: _208  and  _209
REMARK   76  A    between atoms: _208  and  _211
REMARK   77  A    between atoms: _211  and  _212
REMARK   78  A    between atoms: _217  and  _219
REMARK   79  A    between atoms: _219  and  _220
REMARK   80  A    between atoms: _219  and  _222
REMARK   81  A    between atoms: _222  and  _223
REMARK   82  A    between atoms: _225  and  _227
REMARK   83  A    between atoms: _227  and  _228
REMARK   84  A    between atoms: _227  and  _230
REMARK   85  A    between atoms: _230  and  _231
REMARK   86  A    between atoms: _231  and  _232
REMARK   87  A    between atoms: _232  and  _233
REMARK   88  A    between atoms: _233  and  _234
REMARK   89  A    between atoms: _238  and  _240
REMARK   90  A    between atoms: _240  and  _241
REMARK   91  A    between atoms: _240  and  _243
REMARK   92  A    between atoms: _243  and  _244
REMARK   93  A    between atoms: _246  and  _248
REMARK   94  A    between atoms: _248  and  _249
REMARK   95  A    between atoms: _248  and  _251
REMARK   96  A    between atoms: _251  and  _252
REMARK   97  A    between atoms: _254  and  _256
REMARK   98  A    between atoms: _256  and  _257
REMARK   99  A    between atoms: _256  and  _259
REMARK  100  A    between atoms: _259  and  _260
REMARK  101  A    between atoms: _263  and  _265
REMARK  102  A    between atoms: _265  and  _266
REMARK  103  A    between atoms: _265  and  _268
REMARK  104  A    between atoms: _268  and  _269
REMARK                            x       y       z     vdW  Elec       q    Type
REMARK                         _______ _______ _______ _____ _____    ______ ____
ROOT
ATOM      1  C   GLY A   2      21.315  -0.596  25.699  0.00  0.00    +0.243 C 
ATOM      2  O   GLY A   2      21.701  -0.323  26.836  0.00  0.00    -0.273 OA
ATOM      3  N   TYR A   3      20.329  -1.445  25.479  0.00  0.00    -0.298 N 
ATOM      4  H   TYR A   3      20.013  -1.579  24.497  0.00  0.00    +0.150 HD
ENDROOT
BRANCH   1   5
ATOM      5  CA  GLY A   2      21.966   0.051  24.485  0.00  0.00    +0.176 C 
BRANCH   5   7
ATOM      6  C   PRO A   1      21.280  -1.039  22.388  0.00  0.00    +0.239 C 
ATOM      7  N   GLY A   2      21.156  -0.082  23.288  0.00  0.00    -0.296 N 
ATOM      8  H   GLY A   2      20.419   0.634  23.127  0.00  0.00    +0.150 HD
ATOM      9  O   PRO A   1      22.168  -1.877  22.473  0.00  0.00    -0.274 OA
BRANCH   6  11
ATOM     10  N   PRO A   1      20.764  -1.735  20.081  0.00  0.00    -0.210 NA
ATOM     11  CA  PRO A   1      20.260  -1.047  21.261  0.00  0.00    +0.149 C 
ATOM     12  CB  PRO A   1      19.031  -1.861  21.647  0.00  0.00    +0.028 C 
ATOM     13  CG  PRO A   1      19.351  -3.252  21.217  0.00  0.00    +0.021 C 
ATOM     14  CD  PRO A   1      20.098  -3.055  19.912  0.00  0.00    +0.089 C 
ENDBRANCH   6  11
ENDBRANCH   5   7
ENDBRANCH   1   5
BRANCH   3  15
ATOM     15  CA  TYR A   3      19.662  -2.197  26.509  0.00  0.00    +0.141 C 
BRANCH  15  16
ATOM     16  C   TYR A   3      19.407  -3.605  25.951  0.00  0.00    +0.227 C 
ATOM     17  O   TYR A   3      19.525  -3.842  24.737  0.00  0.00    -0.286 OA
ENDBRANCH  15  16
BRANCH  15  18
ATOM     18  CB  TYR A   3      18.315  -1.551  26.888  0.00  0.00    +0.054 C 
BRANCH  18  19
ATOM     19  CG  TYR A   3      17.331  -1.517  25.749  0.00  0.00    -0.020 A 
ATOM     20  CD2 TYR A   3      16.381  -2.520  25.600  0.00  0.00    -0.001 A 
ATOM     21  CE2 TYR A   3      15.486  -2.526  24.545  0.00  0.00    +0.036 A 
ATOM     22  CZ  TYR A   3      15.567  -1.529  23.592  0.00  0.00    +0.134 A 
ATOM     23  CE1 TYR A   3      16.490  -0.521  23.721  0.00  0.00    +0.036 A 
ATOM     24  CD1 TYR A   3      17.380  -0.519  24.780  0.00  0.00    -0.001 A 
BRANCH  22  25
ATOM     25  OH  TYR A   3      14.688  -1.572  22.530  0.00  0.00    -0.506 OA
ATOM     26  HH  TYR A   3      14.858  -0.803  21.931  0.00  0.00    +0.292 HD
ENDBRANCH  22  25
ENDBRANCH  18  19
ENDBRANCH  15  18
ENDBRANCH   3  15
TORSDOF 8
REMARK  Name = ../refined-set-2016/1gyx/1gyx_pocket.pdb
REMARK  104 active torsions:
REMARK  status: ('A' for Active; 'I' for Inactive)
REMARK    1  A    between atoms: _1  and  _3
REMARK    2  A    between atoms: _3  and  _4
REMARK    3  A    between atoms: _3  and  _6
REMARK    4  A    between atoms: _6  and  _7
REMARK    5  A    between atoms: _10  and  _12
REMARK    6  A    between atoms: _12  and  _13
REMARK    7  A    between atoms: _12  and  _15
REMARK    8  A    between atoms: _15  and  _16
REMARK    9  A    between atoms: _16  and  _17
REMARK   10  A    between atoms: _17  and  _18
REMARK   11  A    between atoms: _18  and  _19
REMARK   12  A    between atoms: _23  and  _25
REMARK   13  A    between atoms: _25  and  _26
REMARK   14  A    between atoms: _25  and  _28
REMARK   15  A    between atoms: _30  and  _32
REMARK   16  A    between atoms: _32  and  _33
REMARK   17  A    between atoms: _32  and  _35
REMARK   18  A    between atoms: _35  and  _36
REMARK   19  A    between atoms: _43  and  _44
REMARK   20  A    between atoms: _49  and  _51
REMARK   21  A    between atoms: _51  and  _52
REMARK   22  A    between atoms: _51  and  _54
REMARK   23  A    between atoms: _54  and  _55
REMARK   24  A    between atoms: _55  and  _56
REMARK   25  A    between atoms: _56  and  _57
REMARK   26  A    between atoms: _66  and  _68
REMARK   27  A    between atoms: _68  and  _69
REMARK   28  A    between atoms: _68  and  _71
REMARK   29  A    between atoms: _71  and  _72
REMARK   30  A    between atoms: _72  and  _73
REMARK   31  A    between atoms: _78  and  _80
REMARK   32  A    between atoms: _80  and  _81
REMARK   33  A    between atoms: _80  and  _83
REMARK   34  A    between atoms: _83  and  _84
REMARK   35  A    between atoms: _88  and  _89
REMARK   36  A    between atoms: _94  and  _96
REMARK   37  A    between atoms: _96  and  _97
REMARK   38  A    between atoms: _96  and  _99
REMARK   39  A    between atoms: _99  and  _100
REMARK   40  A    between atoms: _110  and  _112
REMARK   41  A    between atoms: _112  and  _113
REMARK   42  A    between atoms: _112  and  _115
REMARK   43  A    between atoms: _115  and  _116
REMARK   44  A    between atoms: _126  and  _128
REMARK   45  A    between atoms: _128  and  _129
REMARK   46  A    between atoms: _128  and  _131
REMARK   47  A    between atoms: _131  and  _132
REMARK   48  A    between atoms: _136  and  _137
REMARK   49  A    between atoms: _142  and  _144
REMARK   50  A    between atoms: _144  and  _145
REMARK   51  A    between atoms: _147  and  _149
REMARK   52  A    between atoms: _149  and  _150
REMARK   53  A    between atoms: _149  and  _152
REMARK   54  A    between atoms: _152  and  _153
REMARK   55  A    between atoms: _158  and  _159
REMARK   56  A    between atoms: _161  and  _163
REMARK   57  A    between atoms: _163  and  _164
REMARK   58  A    between atoms: _163  and  _166
REMARK   59  A    between atoms: _166  and  _167
REMARK   60  A    between atoms: _167  and  _168
REMARK   61  A    between atoms: _171  and  _172
REMARK   62  A    between atoms: _177  and  _179
REMARK   63  A    between atoms: _179  and  _180
REMARK   64  A    between atoms: _179  and  _182
REMARK   65  A    between atoms: _182  and  _183
REMARK   66  A    between atoms: _188  and  _190
REMARK   67  A    between atoms: _190  and  _191
REMARK   68  A    between atoms: _190  and  _193
REMARK   69  A    between atoms: _193  and  _194
REMARK   70  A    between atoms: _197  and  _199
REMARK   71  A    between atoms: _199  and  _200
REMARK   72  A    between atoms: _199  and  _202
REMARK   73  A    between atoms: _202  and  _203
REMARK   74  A    between atoms: _206  and  _208
REMARK   75  A    between atoms: _208  and  _209
REMARK   76  A    between atoms: _208  and  _211
REMARK   77  A    between atoms: _211  and  _212
REMARK   78  A    between atoms: _217  and  _219
REMARK   79  A    between atoms: _219  and  _220
REMARK   80  A    between atoms: _219  and  _222
REMARK   81  A    between atoms: _222  and  _223
REMARK   82  A    between atoms: _225  and  _227
REMARK   83  A    between atoms: _227  and  _228
REMARK   84  A    between atoms: _227  and  _230
REMARK   85  A    between atoms: _230  and  _231
REMARK   86  A    between atoms: _231  and  _232
REMARK   87  A    between atoms: _232  and  _233
REMARK   88  A    between atoms: _233  and  _234
REMARK   89  A    between atoms: _238  and  _240
REMARK   90  A    between atoms: _240  and  _241
REMARK   91  A    between atoms: _240  and  _243
REMARK   92  A    between atoms: _243  and  _244
REMARK   93  A    between atoms: _246  and  _248
REMARK   94  A    between atoms: _248  and  _249
REMARK   95  A    between atoms: _248  and  _251
REMARK   96  A    between atoms: _251  and  _252
REMARK   97  A    between atoms: _254  and  _256
REMARK   98  A    between atoms: _256  and  _257
REMARK   99  A    between atoms: _256  and  _259
REMARK  100  A    between atoms: _259  and  _260
REMARK  101  A    between atoms: _263  and  _265
REMARK  102  A    between atoms: _265  and  _266
REMARK  103  A    between atoms: _265  and  _268
REMARK  104  A    between atoms: _268  and  _269
REMARK                            x       y       z     vdW  Elec       q    Type
REMARK                         _______ _______ _______ _____ _____    ______ ____
ROOT
ATOM      1  CA  MET A   1      15.209  -7.301  26.983  0.00  0.00    +0.134 C 
ENDROOT
BRANCH   1   2
ATOM      2  N   MET A   1      16.505  -6.897  26.447  0.00  0.00    -0.239 NA
ATOM      3  H   MET A   1      16.739  -7.174  25.472  0.00  0.00    +0.142 HD
ENDBRANCH   1   2
BRANCH   1   4
ATOM      4  C   MET A   1      14.852  -8.728  26.594  0.00  0.00    +0.224 C 
ATOM      5  O   MET A   1      13.703  -9.009  26.253  0.00  0.00    -0.287 OA
ENDBRANCH   1   4
BRANCH   1   6
ATOM      6  CB  MET A   1      14.131  -6.358  26.430  0.00  0.00    +0.037 C 
BRANCH   6   7
ATOM      7  CG  MET A   1      13.882  -5.104  27.236  0.00  0.00    +0.059 C 
BRANCH   7   8
ATOM      8  SD  MET A   1      12.595  -4.240  26.331  0.00  0.00    -0.139 S 
ATOM      9  CE  MET A   1      11.138  -5.165  26.638  0.00  0.00    +0.069 C 
ENDBRANCH   7   8
ENDBRANCH   6   7
ENDBRANCH   1   6
TORSDOF 5
REMARK  Name = ../refined-set-2016/1gyx/1gyx_pocket.pdb
REMARK  104 active torsions:
REMARK  status: ('A' for Active; 'I' for Inactive)
REMARK    1  A    between atoms: _1  and  _3
REMARK    2  A    between atoms: _3  and  _4
REMARK    3  A    between atoms: _3  and  _6
REMARK    4  A    between atoms: _6  and  _7
REMARK    5  A    between atoms: _10  and  _12
REMARK    6  A    between atoms: _12  and  _13
REMARK    7  A    between atoms: _12  and  _15
REMARK    8  A    between atoms: _15  and  _16
REMARK    9  A    between atoms: _16  and  _17
REMARK   10  A    between atoms: _17  and  _18
REMARK   11  A    between atoms: _18  and  _19
REMARK   12  A    between atoms: _23  and  _25
REMARK   13  A    between atoms: _25  and  _26
REMARK   14  A    between atoms: _25  and  _28
REMARK   15  A    between atoms: _30  and  _32
REMARK   16  A    between atoms: _32  and  _33
REMARK   17  A    between atoms: _32  and  _35
REMARK   18  A    between atoms: _35  and  _36
REMARK   19  A    between atoms: _43  and  _44
REMARK   20  A    between atoms: _49  and  _51
REMARK   21  A    between atoms: _51  and  _52
REMARK   22  A    between atoms: _51  and  _54
REMARK   23  A    between atoms: _54  and  _55
REMARK   24  A    between atoms: _55  and  _56
REMARK   25  A    between atoms: _56  and  _57
REMARK   26  A    between atoms: _66  and  _68
REMARK   27  A    between atoms: _68  and  _69
REMARK   28  A    between atoms: _68  and  _71
REMARK   29  A    between atoms: _71  and  _72
REMARK   30  A    between atoms: _72  and  _73
REMARK   31  A    between atoms: _78  and  _80
REMARK   32  A    between atoms: _80  and  _81
REMARK   33  A    between atoms: _80  and  _83
REMARK   34  A    between atoms: _83  and  _84
REMARK   35  A    between atoms: _88  and  _89
REMARK   36  A    between atoms: _94  and  _96
REMARK   37  A    between atoms: _96  and  _97
REMARK   38  A    between atoms: _96  and  _99
REMARK   39  A    between atoms: _99  and  _100
REMARK   40  A    between atoms: _110  and  _112
REMARK   41  A    between atoms: _112  and  _113
REMARK   42  A    between atoms: _112  and  _115
REMARK   43  A    between atoms: _115  and  _116
REMARK   44  A    between atoms: _126  and  _128
REMARK   45  A    between atoms: _128  and  _129
REMARK   46  A    between atoms: _128  and  _131
REMARK   47  A    between atoms: _131  and  _132
REMARK   48  A    between atoms: _136  and  _137
REMARK   49  A    between atoms: _142  and  _144
REMARK   50  A    between atoms: _144  and  _145
REMARK   51  A    between atoms: _147  and  _149
REMARK   52  A    between atoms: _149  and  _150
REMARK   53  A    between atoms: _149  and  _152
REMARK   54  A    between atoms: _152  and  _153
REMARK   55  A    between atoms: _158  and  _159
REMARK   56  A    between atoms: _161  and  _163
REMARK   57  A    between atoms: _163  and  _164
REMARK   58  A    between atoms: _163  and  _166
REMARK   59  A    between atoms: _166  and  _167
REMARK   60  A    between atoms: _167  and  _168
REMARK   61  A    between atoms: _171  and  _172
REMARK   62  A    between atoms: _177  and  _179
REMARK   63  A    between atoms: _179  and  _180
REMARK   64  A    between atoms: _179  and  _182
REMARK   65  A    between atoms: _182  and  _183
REMARK   66  A    between atoms: _188  and  _190
REMARK   67  A    between atoms: _190  and  _191
REMARK   68  A    between atoms: _190  and  _193
REMARK   69  A    between atoms: _193  and  _194
REMARK   70  A    between atoms: _197  and  _199
REMARK   71  A    between atoms: _199  and  _200
REMARK   72  A    between atoms: _199  and  _202
REMARK   73  A    between atoms: _202  and  _203
REMARK   74  A    between atoms: _206  and  _208
REMARK   75  A    between atoms: _208  and  _209
REMARK   76  A    between atoms: _208  and  _211
REMARK   77  A    between atoms: _211  and  _212
REMARK   78  A    between atoms: _217  and  _219
REMARK   79  A    between atoms: _219  and  _220
REMARK   80  A    between atoms: _219  and  _222
REMARK   81  A    between atoms: _222  and  _223
REMARK   82  A    between atoms: _225  and  _227
REMARK   83  A    between atoms: _227  and  _228
REMARK   84  A    between atoms: _227  and  _230
REMARK   85  A    between atoms: _230  and  _231
REMARK   86  A    between atoms: _231  and  _232
REMARK   87  A    between atoms: _232  and  _233
REMARK   88  A    between atoms: _233  and  _234
REMARK   89  A    between atoms: _238  and  _240
REMARK   90  A    between atoms: _240  and  _241
REMARK   91  A    between atoms: _240  and  _243
REMARK   92  A    between atoms: _243  and  _244
REMARK   93  A    between atoms: _246  and  _248
REMARK   94  A    between atoms: _248  and  _249
REMARK   95  A    between atoms: _248  and  _251
REMARK   96  A    between atoms: _251  and  _252
REMARK   97  A    between atoms: _254  and  _256
REMARK   98  A    between atoms: _256  and  _257
REMARK   99  A    between atoms: _256  and  _259
REMARK  100  A    between atoms: _259  and  _260
REMARK  101  A    between atoms: _263  and  _265
REMARK  102  A    between atoms: _265  and  _266
REMARK  103  A    between atoms: _265  and  _268
REMARK  104  A    between atoms: _268  and  _269
REMARK                            x       y       z     vdW  Elec       q    Type
REMARK                         _______ _______ _______ _____ _____    ______ ____
ROOT
ATOM      1  C   PRO A   1      13.574   2.819  18.574  0.00  0.00    +0.239 C 
ATOM      2  O   PRO A   1      14.785   2.660  18.721  0.00  0.00    -0.274 OA
ATOM      3  N   HIS A   2      12.840   2.131  17.695  0.00  0.00    -0.298 N 
ATOM      4  H   HIS A   2      11.813   2.292  17.673  0.00  0.00    +0.150 HD
ENDROOT
BRANCH   1   9
ATOM      5  N   PRO A   1      13.464   3.976  20.732  0.00  0.00    -0.210 NA
ATOM      6  CD  PRO A   1      13.855   5.405  20.955  0.00  0.00    +0.089 C 
ATOM      7  CG  PRO A   1      13.045   6.169  19.939  0.00  0.00    +0.021 C 
ATOM      8  CB  PRO A   1      12.939   5.244  18.778  0.00  0.00    +0.028 C 
ATOM      9  CA  PRO A   1      12.840   3.849  19.410  0.00  0.00    +0.149 C 
ENDBRANCH   1   9
BRANCH   3  10
ATOM     10  CA  HIS A   2      13.414   1.163  16.763  0.00  0.00    +0.143 C 
BRANCH  10  11
ATOM     11  C   HIS A   2      13.055   1.632  15.355  0.00  0.00    +0.227 C 
ATOM     12  O   HIS A   2      11.887   1.865  15.010  0.00  0.00    -0.286 OA
ENDBRANCH  10  11
BRANCH  10  13
ATOM     13  CB  HIS A   2      12.873  -0.256  16.959  0.00  0.00    +0.075 C 
BRANCH  13  14
ATOM     14  CG  HIS A   2      13.475  -1.207  15.961  0.00  0.00    +0.082 A 
ATOM     15  ND1 HIS A   2      14.826  -1.501  15.928  0.00  0.00    -0.227 NA
ATOM     16  CE1 HIS A   2      15.040  -2.319  14.912  0.00  0.00    +0.199 A 
ATOM     17  NE2 HIS A   2      13.873  -2.564  14.314  0.00  0.00    -0.221 NA
ATOM     18  CD2 HIS A   2      12.875  -1.869  14.937  0.00  0.00    +0.115 A 
ENDBRANCH  13  14
ENDBRANCH  10  13
ENDBRANCH   3  10
TORSDOF 5
REMARK  Name = ../refined-set-2016/1gyx/1gyx_pocket.pdb
REMARK  104 active torsions:
REMARK  status: ('A' for Active; 'I' for Inactive)
REMARK    1  A    between atoms: _1  and  _3
REMARK    2  A    between atoms: _3  and  _4
REMARK    3  A    between atoms: _3  and  _6
REMARK    4  A    between atoms: _6  and  _7
REMARK    5  A    between atoms: _10  and  _12
REMARK    6  A    between atoms: _12  and  _13
REMARK    7  A    between atoms: _12  and  _15
REMARK    8  A    between atoms: _15  and  _16
REMARK    9  A    between atoms: _16  and  _17
REMARK   10  A    between atoms: _17  and  _18
REMARK   11  A    between atoms: _18  and  _19
REMARK   12  A    between atoms: _23  and  _25
REMARK   13  A    between atoms: _25  and  _26
REMARK   14  A    between atoms: _25  and  _28
REMARK   15  A    between atoms: _30  and  _32
REMARK   16  A    between atoms: _32  and  _33
REMARK   17  A    between atoms: _32  and  _35
REMARK   18  A    between atoms: _35  and  _36
REMARK   19  A    between atoms: _43  and  _44
REMARK   20  A    between atoms: _49  and  _51
REMARK   21  A    between atoms: _51  and  _52
REMARK   22  A    between atoms: _51  and  _54
REMARK   23  A    between atoms: _54  and  _55
REMARK   24  A    between atoms: _55  and  _56
REMARK   25  A    between atoms: _56  and  _57
REMARK   26  A    between atoms: _66  and  _68
REMARK   27  A    between atoms: _68  and  _69
REMARK   28  A    between atoms: _68  and  _71
REMARK   29  A    between atoms: _71  and  _72
REMARK   30  A    between atoms: _72  and  _73
REMARK   31  A    between atoms: _78  and  _80
REMARK   32  A    between atoms: _80  and  _81
REMARK   33  A    between atoms: _80  and  _83
REMARK   34  A    between atoms: _83  and  _84
REMARK   35  A    between atoms: _88  and  _89
REMARK   36  A    between atoms: _94  and  _96
REMARK   37  A    between atoms: _96  and  _97
REMARK   38  A    between atoms: _96  and  _99
REMARK   39  A    between atoms: _99  and  _100
REMARK   40  A    between atoms: _110  and  _112
REMARK   41  A    between atoms: _112  and  _113
REMARK   42  A    between atoms: _112  and  _115
REMARK   43  A    between atoms: _115  and  _116
REMARK   44  A    between atoms: _126  and  _128
REMARK   45  A    between atoms: _128  and  _129
REMARK   46  A    between atoms: _128  and  _131
REMARK   47  A    between atoms: _131  and  _132
REMARK   48  A    between atoms: _136  and  _137
REMARK   49  A    between atoms: _142  and  _144
REMARK   50  A    between atoms: _144  and  _145
REMARK   51  A    between atoms: _147  and  _149
REMARK   52  A    between atoms: _149  and  _150
REMARK   53  A    between atoms: _149  and  _152
REMARK   54  A    between atoms: _152  and  _153
REMARK   55  A    between atoms: _158  and  _159
REMARK   56  A    between atoms: _161  and  _163
REMARK   57  A    between atoms: _163  and  _164
REMARK   58  A    between atoms: _163  and  _166
REMARK   59  A    between atoms: _166  and  _167
REMARK   60  A    between atoms: _167  and  _168
REMARK   61  A    between atoms: _171  and  _172
REMARK   62  A    between atoms: _177  and  _179
REMARK   63  A    between atoms: _179  and  _180
REMARK   64  A    between atoms: _179  and  _182
REMARK   65  A    between atoms: _182  and  _183
REMARK   66  A    between atoms: _188  and  _190
REMARK   67  A    between atoms: _190  and  _191
REMARK   68  A    between atoms: _190  and  _193
REMARK   69  A    between atoms: _193  and  _194
REMARK   70  A    between atoms: _197  and  _199
REMARK   71  A    between atoms: _199  and  _200
REMARK   72  A    between atoms: _199  and  _202
REMARK   73  A    between atoms: _202  and  _203
REMARK   74  A    between atoms: _206  and  _208
REMARK   75  A    between atoms: _208  and  _209
REMARK   76  A    between atoms: _208  and  _211
REMARK   77  A    between atoms: _211  and  _212
REMARK   78  A    between atoms: _217  and  _219
REMARK   79  A    between atoms: _219  and  _220
REMARK   80  A    between atoms: _219  and  _222
REMARK   81  A    between atoms: _222  and  _223
REMARK   82  A    between atoms: _225  and  _227
REMARK   83  A    between atoms: _227  and  _228
REMARK   84  A    between atoms: _227  and  _230
REMARK   85  A    between atoms: _230  and  _231
REMARK   86  A    between atoms: _231  and  _232
REMARK   87  A    between atoms: _232  and  _233
REMARK   88  A    between atoms: _233  and  _234
REMARK   89  A    between atoms: _238  and  _240
REMARK   90  A    between atoms: _240  and  _241
REMARK   91  A    between atoms: _240  and  _243
REMARK   92  A    between atoms: _243  and  _244
REMARK   93  A    between atoms: _246  and  _248
REMARK   94  A    between atoms: _248  and  _249
REMARK   95  A    between atoms: _248  and  _251
REMARK   96  A    between atoms: _251  and  _252
REMARK   97  A    between atoms: _254  and  _256
REMARK   98  A    between atoms: _256  and  _257
REMARK   99  A    between atoms: _256  and  _259
REMARK  100  A    between atoms: _259  and  _260
REMARK  101  A    between atoms: _263  and  _265
REMARK  102  A    between atoms: _265  and  _266
REMARK  103  A    between atoms: _265  and  _268
REMARK  104  A    between atoms: _268  and  _269
REMARK                            x       y       z     vdW  Elec       q    Type
REMARK                         _______ _______ _______ _____ _____    ______ ____
ROOT
ATOM      1  CA  ILE A   1      15.521  10.688  16.401  0.00  0.00    +0.133 C 
ENDROOT
BRANCH   1   2
ATOM      2  N   ILE A   1      16.453  11.256  15.427  0.00  0.00    -0.239 NA
ATOM      3  H   ILE A   1      17.192  10.648  15.020  0.00  0.00    +0.142 HD
ENDBRANCH   1   2
BRANCH   1   4
ATOM      4  C   ILE A   1      15.659  11.350  17.770  0.00  0.00    +0.224 C 
ATOM      5  O   ILE A   1      14.645  11.678  18.394  0.00  0.00    -0.287 OA
ENDBRANCH   1   4
BRANCH   1   6
ATOM      6  CB  ILE A   1      15.702   9.157  16.463  0.00  0.00    +0.023 C 
ATOM      7  CG2 ILE A   1      14.942   8.535  17.616  0.00  0.00    +0.002 C 
BRANCH   6   8
ATOM      8  CG1 ILE A   1      15.323   8.531  15.114  0.00  0.00    +0.002 C 
ATOM      9  CD1 ILE A   1      13.866   8.562  14.754  0.00  0.00    +0.000 C 
ENDBRANCH   6   8
ENDBRANCH   1   6
TORSDOF 4
REMARK  Name = ../refined-set-2016/1gyx/1gyx_pocket.pdb
REMARK  104 active torsions:
REMARK  status: ('A' for Active; 'I' for Inactive)
REMARK    1  A    between atoms: _1  and  _3
REMARK    2  A    between atoms: _3  and  _4
REMARK    3  A    between atoms: _3  and  _6
REMARK    4  A    between atoms: _6  and  _7
REMARK    5  A    between atoms: _10  and  _12
REMARK    6  A    between atoms: _12  and  _13
REMARK    7  A    between atoms: _12  and  _15
REMARK    8  A    between atoms: _15  and  _16
REMARK    9  A    between atoms: _16  and  _17
REMARK   10  A    between atoms: _17  and  _18
REMARK   11  A    between atoms: _18  and  _19
REMARK   12  A    between atoms: _23  and  _25
REMARK   13  A    between atoms: _25  and  _26
REMARK   14  A    between atoms: _25  and  _28
REMARK   15  A    between atoms: _30  and  _32
REMARK   16  A    between atoms: _32  and  _33
REMARK   17  A    between atoms: _32  and  _35
REMARK   18  A    between atoms: _35  and  _36
REMARK   19  A    between atoms: _43  and  _44
REMARK   20  A    between atoms: _49  and  _51
REMARK   21  A    between atoms: _51  and  _52
REMARK   22  A    between atoms: _51  and  _54
REMARK   23  A    between atoms: _54  and  _55
REMARK   24  A    between atoms: _55  and  _56
REMARK   25  A    between atoms: _56  and  _57
REMARK   26  A    between atoms: _66  and  _68
REMARK   27  A    between atoms: _68  and  _69
REMARK   28  A    between atoms: _68  and  _71
REMARK   29  A    between atoms: _71  and  _72
REMARK   30  A    between atoms: _72  and  _73
REMARK   31  A    between atoms: _78  and  _80
REMARK   32  A    between atoms: _80  and  _81
REMARK   33  A    between atoms: _80  and  _83
REMARK   34  A    between atoms: _83  and  _84
REMARK   35  A    between atoms: _88  and  _89
REMARK   36  A    between atoms: _94  and  _96
REMARK   37  A    between atoms: _96  and  _97
REMARK   38  A    between atoms: _96  and  _99
REMARK   39  A    between atoms: _99  and  _100
REMARK   40  A    between atoms: _110  and  _112
REMARK   41  A    between atoms: _112  and  _113
REMARK   42  A    between atoms: _112  and  _115
REMARK   43  A    between atoms: _115  and  _116
REMARK   44  A    between atoms: _126  and  _128
REMARK   45  A    between atoms: _128  and  _129
REMARK   46  A    between atoms: _128  and  _131
REMARK   47  A    between atoms: _131  and  _132
REMARK   48  A    between atoms: _136  and  _137
REMARK   49  A    between atoms: _142  and  _144
REMARK   50  A    between atoms: _144  and  _145
REMARK   51  A    between atoms: _147  and  _149
REMARK   52  A    between atoms: _149  and  _150
REMARK   53  A    between atoms: _149  and  _152
REMARK   54  A    between atoms: _152  and  _153
REMARK   55  A    between atoms: _158  and  _159
REMARK   56  A    between atoms: _161  and  _163
REMARK   57  A    between atoms: _163  and  _164
REMARK   58  A    between atoms: _163  and  _166
REMARK   59  A    between atoms: _166  and  _167
REMARK   60  A    between atoms: _167  and  _168
REMARK   61  A    between atoms: _171  and  _172
REMARK   62  A    between atoms: _177  and  _179
REMARK   63  A    between atoms: _179  and  _180
REMARK   64  A    between atoms: _179  and  _182
REMARK   65  A    between atoms: _182  and  _183
REMARK   66  A    between atoms: _188  and  _190
REMARK   67  A    between atoms: _190  and  _191
REMARK   68  A    between atoms: _190  and  _193
REMARK   69  A    between atoms: _193  and  _194
REMARK   70  A    between atoms: _197  and  _199
REMARK   71  A    between atoms: _199  and  _200
REMARK   72  A    between atoms: _199  and  _202
REMARK   73  A    between atoms: _202  and  _203
REMARK   74  A    between atoms: _206  and  _208
REMARK   75  A    between atoms: _208  and  _209
REMARK   76  A    between atoms: _208  and  _211
REMARK   77  A    between atoms: _211  and  _212
REMARK   78  A    between atoms: _217  and  _219
REMARK   79  A    between atoms: _219  and  _220
REMARK   80  A    between atoms: _219  and  _222
REMARK   81  A    between atoms: _222  and  _223
REMARK   82  A    between atoms: _225  and  _227
REMARK   83  A    between atoms: _227  and  _228
REMARK   84  A    between atoms: _227  and  _230
REMARK   85  A    between atoms: _230  and  _231
REMARK   86  A    between atoms: _231  and  _232
REMARK   87  A    between atoms: _232  and  _233
REMARK   88  A    between atoms: _233  and  _234
REMARK   89  A    between atoms: _238  and  _240
REMARK   90  A    between atoms: _240  and  _241
REMARK   91  A    between atoms: _240  and  _243
REMARK   92  A    between atoms: _243  and  _244
REMARK   93  A    between atoms: _246  and  _248
REMARK   94  A    between atoms: _248  and  _249
REMARK   95  A    between atoms: _248  and  _251
REMARK   96  A    between atoms: _251  and  _252
REMARK   97  A    between atoms: _254  and  _256
REMARK   98  A    between atoms: _256  and  _257
REMARK   99  A    between atoms: _256  and  _259
REMARK  100  A    between atoms: _259  and  _260
REMARK  101  A    between atoms: _263  and  _265
REMARK  102  A    between atoms: _265  and  _266
REMARK  103  A    between atoms: _265  and  _268
REMARK  104  A    between atoms: _268  and  _269
REMARK                            x       y       z     vdW  Elec       q    Type
REMARK                         _______ _______ _______ _____ _____    ______ ____
ROOT
ATOM      1  C   ASN A   2      14.205  12.200  23.438  0.00  0.00    +0.241 C 
ATOM      2  O   ASN A   2      14.156  11.948  24.646  0.00  0.00    -0.273 OA
ATOM      3  N   SER A   3      14.777  11.373  22.585  0.00  0.00    -0.295 N 
ATOM      4  H   SER A   3      14.857  11.660  21.589  0.00  0.00    +0.150 HD
ENDROOT
BRANCH   3   5
ATOM      5  CA  SER A   3      15.299  10.080  22.981  0.00  0.00    +0.178 C 
BRANCH   5   6
ATOM      6  C   SER A   3      16.745  10.092  23.435  0.00  0.00    +0.243 C 
ATOM      7  N   LYS A   4      17.094   9.081  24.233  0.00  0.00    -0.298 N 
ATOM      8  H   LYS A   4      16.361   8.430  24.580  0.00  0.00    +0.150 HD
ATOM      9  O   SER A   3      17.518  11.006  23.113  0.00  0.00    -0.273 OA
BRANCH   7  10
ATOM     10  CA  LYS A   4      18.475   8.870  24.628  0.00  0.00    +0.137 C 
BRANCH  10  11
ATOM     11  C   LYS A   4      19.098   7.937  23.592  0.00  0.00    +0.227 C 
ATOM     12  O   LYS A   4      18.405   7.101  22.977  0.00  0.00    -0.286 OA
ENDBRANCH  10  11
BRANCH  10  13
ATOM     13  CB  LYS A   4      18.548   8.265  26.016  0.00  0.00    +0.028 C 
BRANCH  13  14
ATOM     14  CG  LYS A   4      17.962   9.095  27.149  0.00  0.00    -0.000 C 
BRANCH  14  15
ATOM     15  CD  LYS A   4      18.441  10.540  27.200  0.00  0.00    -0.024 C 
BRANCH  15  16
ATOM     16  CE  LYS A   4      17.915  11.223  28.471  0.00  0.00    -0.086 C 
BRANCH  16  17
ATOM     17  NZ  LYS A   4      18.288  12.660  28.502  0.00  0.00    +0.380 N 
ATOM     18  HZ1 LYS A   4      17.919  13.094  29.372  0.00  0.00    -0.089 HD
ATOM     19  HZ2 LYS A   4      19.324  12.748  28.482  0.00  0.00    -0.089 HD
ATOM     20  HZ3 LYS A   4      17.881  13.140  27.674  0.00  0.00    -0.089 HD
ENDBRANCH  16  17
ENDBRANCH  15  16
ENDBRANCH  14  15
ENDBRANCH  13  14
ENDBRANCH  10  13
ENDBRANCH   7  10
ENDBRANCH   5   6
BRANCH   5  21
ATOM     21  CB  SER A   3      15.175   9.166  21.747  0.00  0.00    +0.166 C 
BRANCH  21  22
ATOM     22  OG  SER A   3      15.611   7.855  22.026  0.00  0.00    -0.380 OA
ATOM     23  H   SER A   3      16.561   7.877  22.305  0.00  0.00    +0.211 HD
ENDBRANCH  21  22
ENDBRANCH   5  21
ENDBRANCH   3   5
BRANCH   1  24
ATOM     24  CA  ASN A   2      13.611  13.474  22.856  0.00  0.00    +0.158 C 
BRANCH  24  27
ATOM     25  C   LEU A   1      12.051  12.380  21.298  0.00  0.00    +0.238 C 
ATOM     26  O   LEU A   1      11.616  11.651  22.198  0.00  0.00    -0.274 OA
ATOM     27  N   ASN A   2      13.031  13.238  21.540  0.00  0.00    -0.297 N 
ATOM     28  H   ASN A   2      13.412  13.779  20.738  0.00  0.00    +0.150 HD
BRANCH  25  29
ATOM     29  CA  LEU A   1      11.513  12.240  19.902  0.00  0.00    +0.145 C 
BRANCH  29  30
ATOM     30  N   LEU A   1      12.221  13.083  18.943  0.00  0.00    -0.238 NA
ATOM     31  H   LEU A   1      13.195  12.837  18.673  0.00  0.00    +0.142 HD
ENDBRANCH  29  30
BRANCH  29  32
ATOM     32  CB  LEU A   1      11.500  10.788  19.428  0.00  0.00    +0.026 C 
BRANCH  32  33
ATOM     33  CG  LEU A   1      10.906  10.521  18.040  0.00  0.00    +0.002 C 
ATOM     34  CD2 LEU A   1       9.487  11.039  17.929  0.00  0.00    +0.000 C 
ATOM     35  CD1 LEU A   1      10.937   9.028  17.746  0.00  0.00    +0.000 C 
ENDBRANCH  32  33
ENDBRANCH  29  32
ENDBRANCH  25  29
ENDBRANCH  24  27
BRANCH  24  36
ATOM     36  CB  ASN A   2      12.551  14.070  23.813  0.00  0.00    +0.114 C 
BRANCH  36  37
ATOM     37  CG  ASN A   2      13.193  14.745  24.999  0.00  0.00    +0.222 C 
ATOM     38  ND2 ASN A   2      12.540  14.736  26.157  0.00  0.00    -0.329 N 
ATOM     39 HD21 ASN A   2      12.965  15.177  26.997  0.00  0.00    +0.145 HD
ATOM     40 HD22 ASN A   2      11.604  14.288  26.223  0.00  0.00    +0.145 HD
ATOM     41  OD1 ASN A   2      14.304  15.265  24.879  0.00  0.00    -0.275 OA
ENDBRANCH  36  37
ENDBRANCH  24  36
ENDBRANCH   1  24
TORSDOF 19
REMARK  Name = ../refined-set-2016/1gyx/1gyx_pocket.pdb
REMARK  104 active torsions:
REMARK  status: ('A' for Active; 'I' for Inactive)
REMARK    1  A    between atoms: _1  and  _3
REMARK    2  A    between atoms: _3  and  _4
REMARK    3  A    between atoms: _3  and  _6
REMARK    4  A    between atoms: _6  and  _7
REMARK    5  A    between atoms: _10  and  _12
REMARK    6  A    between atoms: _12  and  _13
REMARK    7  A    between atoms: _12  and  _15
REMARK    8  A    between atoms: _15  and  _16
REMARK    9  A    between atoms: _16  and  _17
REMARK   10  A    between atoms: _17  and  _18
REMARK   11  A    between atoms: _18  and  _19
REMARK   12  A    between atoms: _23  and  _25
REMARK   13  A    between atoms: _25  and  _26
REMARK   14  A    between atoms: _25  and  _28
REMARK   15  A    between atoms: _30  and  _32
REMARK   16  A    between atoms: _32  and  _33
REMARK   17  A    between atoms: _32  and  _35
REMARK   18  A    between atoms: _35  and  _36
REMARK   19  A    between atoms: _43  and  _44
REMARK   20  A    between atoms: _49  and  _51
REMARK   21  A    between atoms: _51  and  _52
REMARK   22  A    between atoms: _51  and  _54
REMARK   23  A    between atoms: _54  and  _55
REMARK   24  A    between atoms: _55  and  _56
REMARK   25  A    between atoms: _56  and  _57
REMARK   26  A    between atoms: _66  and  _68
REMARK   27  A    between atoms: _68  and  _69
REMARK   28  A    between atoms: _68  and  _71
REMARK   29  A    between atoms: _71  and  _72
REMARK   30  A    between atoms: _72  and  _73
REMARK   31  A    between atoms: _78  and  _80
REMARK   32  A    between atoms: _80  and  _81
REMARK   33  A    between atoms: _80  and  _83
REMARK   34  A    between atoms: _83  and  _84
REMARK   35  A    between atoms: _88  and  _89
REMARK   36  A    between atoms: _94  and  _96
REMARK   37  A    between atoms: _96  and  _97
REMARK   38  A    between atoms: _96  and  _99
REMARK   39  A    between atoms: _99  and  _100
REMARK   40  A    between atoms: _110  and  _112
REMARK   41  A    between atoms: _112  and  _113
REMARK   42  A    between atoms: _112  and  _115
REMARK   43  A    between atoms: _115  and  _116
REMARK   44  A    between atoms: _126  and  _128
REMARK   45  A    between atoms: _128  and  _129
REMARK   46  A    between atoms: _128  and  _131
REMARK   47  A    between atoms: _131  and  _132
REMARK   48  A    between atoms: _136  and  _137
REMARK   49  A    between atoms: _142  and  _144
REMARK   50  A    between atoms: _144  and  _145
REMARK   51  A    between atoms: _147  and  _149
REMARK   52  A    between atoms: _149  and  _150
REMARK   53  A    between atoms: _149  and  _152
REMARK   54  A    between atoms: _152  and  _153
REMARK   55  A    between atoms: _158  and  _159
REMARK   56  A    between atoms: _161  and  _163
REMARK   57  A    between atoms: _163  and  _164
REMARK   58  A    between atoms: _163  and  _166
REMARK   59  A    between atoms: _166  and  _167
REMARK   60  A    between atoms: _167  and  _168
REMARK   61  A    between atoms: _171  and  _172
REMARK   62  A    between atoms: _177  and  _179
REMARK   63  A    between atoms: _179  and  _180
REMARK   64  A    between atoms: _179  and  _182
REMARK   65  A    between atoms: _182  and  _183
REMARK   66  A    between atoms: _188  and  _190
REMARK   67  A    between atoms: _190  and  _191
REMARK   68  A    between atoms: _190  and  _193
REMARK   69  A    between atoms: _193  and  _194
REMARK   70  A    between atoms: _197  and  _199
REMARK   71  A    between atoms: _199  and  _200
REMARK   72  A    between atoms: _199  and  _202
REMARK   73  A    between atoms: _202  and  _203
REMARK   74  A    between atoms: _206  and  _208
REMARK   75  A    between atoms: _208  and  _209
REMARK   76  A    between atoms: _208  and  _211
REMARK   77  A    between atoms: _211  and  _212
REMARK   78  A    between atoms: _217  and  _219
REMARK   79  A    between atoms: _219  and  _220
REMARK   80  A    between atoms: _219  and  _222
REMARK   81  A    between atoms: _222  and  _223
REMARK   82  A    between atoms: _225  and  _227
REMARK   83  A    between atoms: _227  and  _228
REMARK   84  A    between atoms: _227  and  _230
REMARK   85  A    between atoms: _230  and  _231
REMARK   86  A    between atoms: _231  and  _232
REMARK   87  A    between atoms: _232  and  _233
REMARK   88  A    between atoms: _233  and  _234
REMARK   89  A    between atoms: _238  and  _240
REMARK   90  A    between atoms: _240  and  _241
REMARK   91  A    between atoms: _240  and  _243
REMARK   92  A    between atoms: _243  and  _244
REMARK   93  A    between atoms: _246  and  _248
REMARK   94  A    between atoms: _248  and  _249
REMARK   95  A    between atoms: _248  and  _251
REMARK   96  A    between atoms: _251  and  _252
REMARK   97  A    between atoms: _254  and  _256
REMARK   98  A    between atoms: _256  and  _257
REMARK   99  A    between atoms: _256  and  _259
REMARK  100  A    between atoms: _259  and  _260
REMARK  101  A    between atoms: _263  and  _265
REMARK  102  A    between atoms: _265  and  _266
REMARK  103  A    between atoms: _265  and  _268
REMARK  104  A    between atoms: _268  and  _269
REMARK                            x       y       z     vdW  Elec       q    Type
REMARK                         _______ _______ _______ _____ _____    ______ ____
ROOT
ATOM      1  C   SER A   2      16.905   3.298  22.003  0.00  0.00    +0.243 C 
ATOM      2  O   SER A   2      15.863   2.767  21.641  0.00  0.00    -0.273 OA
ATOM      3  N   ILE A   3      17.878   3.687  21.186  0.00  0.00    -0.297 N 
ATOM      4  H   ILE A   3      18.761   4.068  21.582  0.00  0.00    +0.150 HD
ENDROOT
BRANCH   3   5
ATOM      5  CA  ILE A   3      17.721   3.585  19.735  0.00  0.00    +0.149 C 
BRANCH   5   6
ATOM      6  C   ILE A   3      18.422   2.401  19.126  0.00  0.00    +0.241 C 
ATOM      7  O   ILE A   3      19.593   2.102  19.362  0.00  0.00    -0.273 OA
ATOM      8  N   SER A   4      17.655   1.705  18.276  0.00  0.00    -0.296 N 
ATOM      9  H   SER A   4      16.650   1.959  18.191  0.00  0.00    +0.150 HD
BRANCH   8  10
ATOM     10  CA  SER A   4      18.169   0.604  17.462  0.00  0.00    +0.166 C 
BRANCH  10  11
ATOM     11  C   SER A   4      17.736   0.850  16.020  0.00  0.00    +0.229 C 
ATOM     12  O   SER A   4      16.689   1.470  15.777  0.00  0.00    -0.286 OA
ENDBRANCH  10  11
BRANCH  10  13
ATOM     13  CB  SER A   4      17.675  -0.746  17.943  0.00  0.00    +0.165 C 
BRANCH  13  14
ATOM     14  OG  SER A   4      16.290  -0.765  18.143  0.00  0.00    -0.380 OA
ATOM     15  H   SER A   4      16.047  -0.089  18.824  0.00  0.00    +0.211 HD
ENDBRANCH  13  14
ENDBRANCH  10  13
ENDBRANCH   8  10
ENDBRANCH   5   6
BRANCH   5  16
ATOM     16  CB  ILE A   3      18.286   4.905  19.133  0.00  0.00    +0.027 C 
ATOM     17  CG2 ILE A   3      18.280   4.871  17.612  0.00  0.00    +0.002 C 
BRANCH  16  18
ATOM     18  CG1 ILE A   3      17.531   6.142  19.660  0.00  0.00    +0.002 C 
ATOM     19  CD1 ILE A   3      18.240   7.460  19.389  0.00  0.00    +0.000 C 
ENDBRANCH  16  18
ENDBRANCH   5  16
ENDBRANCH   3   5
BRANCH   1  20
ATOM     20  CA  SER A   2      17.092   3.573  23.489  0.00  0.00    +0.178 C 
BRANCH  20  22
ATOM     21  C   SER A   1      19.455   3.228  23.991  0.00  0.00    +0.241 C 
ATOM     22  N   SER A   2      18.418   4.035  23.839  0.00  0.00    -0.295 N 
ATOM     23  H   SER A   2      18.563   5.055  23.978  0.00  0.00    +0.150 HD
ATOM     24  O   SER A   1      19.344   2.013  23.787  0.00  0.00    -0.274 OA
BRANCH  21  25
ATOM     25  CA  SER A   1      20.801   3.819  24.354  0.00  0.00    +0.174 C 
BRANCH  25  26
ATOM     26  N   SER A   1      20.946   5.242  24.048  0.00  0.00    -0.236 NA
ATOM     27  H   SER A   1      21.080   5.926  24.820  0.00  0.00    +0.142 HD
ENDBRANCH  25  26
BRANCH  25  28
ATOM     28  CB  SER A   1      21.074   3.581  25.840  0.00  0.00    +0.163 C 
BRANCH  28  29
ATOM     29  OG  SER A   1      20.093   4.269  26.595  0.00  0.00    -0.380 OA
ATOM     30  H   SER A   1      20.259   4.123  27.560  0.00  0.00    +0.211 HD
ENDBRANCH  28  29
ENDBRANCH  25  28
ENDBRANCH  21  25
ENDBRANCH  20  22
BRANCH  20  31
ATOM     31  CB  SER A   2      16.076   4.687  23.829  0.00  0.00    +0.166 C 
BRANCH  31  32
ATOM     32  OG  SER A   2      16.201   5.061  25.184  0.00  0.00    -0.380 OA
ATOM     33  H   SER A   2      15.546   5.774  25.390  0.00  0.00    +0.211 HD
ENDBRANCH  31  32
ENDBRANCH  20  31
ENDBRANCH   1  20
TORSDOF 16
REMARK  Name = ../refined-set-2016/1gyx/1gyx_pocket.pdb
REMARK  104 active torsions:
REMARK  status: ('A' for Active; 'I' for Inactive)
REMARK    1  A    between atoms: _1  and  _3
REMARK    2  A    between atoms: _3  and  _4
REMARK    3  A    between atoms: _3  and  _6
REMARK    4  A    between atoms: _6  and  _7
REMARK    5  A    between atoms: _10  and  _12
REMARK    6  A    between atoms: _12  and  _13
REMARK    7  A    between atoms: _12  and  _15
REMARK    8  A    between atoms: _15  and  _16
REMARK    9  A    between atoms: _16  and  _17
REMARK   10  A    between atoms: _17  and  _18
REMARK   11  A    between atoms: _18  and  _19
REMARK   12  A    between atoms: _23  and  _25
REMARK   13  A    between atoms: _25  and  _26
REMARK   14  A    between atoms: _25  and  _28
REMARK   15  A    between atoms: _30  and  _32
REMARK   16  A    between atoms: _32  and  _33
REMARK   17  A    between atoms: _32  and  _35
REMARK   18  A    between atoms: _35  and  _36
REMARK   19  A    between atoms: _43  and  _44
REMARK   20  A    between atoms: _49  and  _51
REMARK   21  A    between atoms: _51  and  _52
REMARK   22  A    between atoms: _51  and  _54
REMARK   23  A    between atoms: _54  and  _55
REMARK   24  A    between atoms: _55  and  _56
REMARK   25  A    between atoms: _56  and  _57
REMARK   26  A    between atoms: _66  and  _68
REMARK   27  A    between atoms: _68  and  _69
REMARK   28  A    between atoms: _68  and  _71
REMARK   29  A    between atoms: _71  and  _72
REMARK   30  A    between atoms: _72  and  _73
REMARK   31  A    between atoms: _78  and  _80
REMARK   32  A    between atoms: _80  and  _81
REMARK   33  A    between atoms: _80  and  _83
REMARK   34  A    between atoms: _83  and  _84
REMARK   35  A    between atoms: _88  and  _89
REMARK   36  A    between atoms: _94  and  _96
REMARK   37  A    between atoms: _96  and  _97
REMARK   38  A    between atoms: _96  and  _99
REMARK   39  A    between atoms: _99  and  _100
REMARK   40  A    between atoms: _110  and  _112
REMARK   41  A    between atoms: _112  and  _113
REMARK   42  A    between atoms: _112  and  _115
REMARK   43  A    between atoms: _115  and  _116
REMARK   44  A    between atoms: _126  and  _128
REMARK   45  A    between atoms: _128  and  _129
REMARK   46  A    between atoms: _128  and  _131
REMARK   47  A    between atoms: _131  and  _132
REMARK   48  A    between atoms: _136  and  _137
REMARK   49  A    between atoms: _142  and  _144
REMARK   50  A    between atoms: _144  and  _145
REMARK   51  A    between atoms: _147  and  _149
REMARK   52  A    between atoms: _149  and  _150
REMARK   53  A    between atoms: _149  and  _152
REMARK   54  A    between atoms: _152  and  _153
REMARK   55  A    between atoms: _158  and  _159
REMARK   56  A    between atoms: _161  and  _163
REMARK   57  A    between atoms: _163  and  _164
REMARK   58  A    between atoms: _163  and  _166
REMARK   59  A    between atoms: _166  and  _167
REMARK   60  A    between atoms: _167  and  _168
REMARK   61  A    between atoms: _171  and  _172
REMARK   62  A    between atoms: _177  and  _179
REMARK   63  A    between atoms: _179  and  _180
REMARK   64  A    between atoms: _179  and  _182
REMARK   65  A    between atoms: _182  and  _183
REMARK   66  A    between atoms: _188  and  _190
REMARK   67  A    between atoms: _190  and  _191
REMARK   68  A    between atoms: _190  and  _193
REMARK   69  A    between atoms: _193  and  _194
REMARK   70  A    between atoms: _197  and  _199
REMARK   71  A    between atoms: _199  and  _200
REMARK   72  A    between atoms: _199  and  _202
REMARK   73  A    between atoms: _202  and  _203
REMARK   74  A    between atoms: _206  and  _208
REMARK   75  A    between atoms: _208  and  _209
REMARK   76  A    between atoms: _208  and  _211
REMARK   77  A    between atoms: _211  and  _212
REMARK   78  A    between atoms: _217  and  _219
REMARK   79  A    between atoms: _219  and  _220
REMARK   80  A    between atoms: _219  and  _222
REMARK   81  A    between atoms: _222  and  _223
REMARK   82  A    between atoms: _225  and  _227
REMARK   83  A    between atoms: _227  and  _228
REMARK   84  A    between atoms: _227  and  _230
REMARK   85  A    between atoms: _230  and  _231
REMARK   86  A    between atoms: _231  and  _232
REMARK   87  A    between atoms: _232  and  _233
REMARK   88  A    between atoms: _233  and  _234
REMARK   89  A    between atoms: _238  and  _240
REMARK   90  A    between atoms: _240  and  _241
REMARK   91  A    between atoms: _240  and  _243
REMARK   92  A    between atoms: _243  and  _244
REMARK   93  A    between atoms: _246  and  _248
REMARK   94  A    between atoms: _248  and  _249
REMARK   95  A    between atoms: _248  and  _251
REMARK   96  A    between atoms: _251  and  _252
REMARK   97  A    between atoms: _254  and  _256
REMARK   98  A    between atoms: _256  and  _257
REMARK   99  A    between atoms: _256  and  _259
REMARK  100  A    between atoms: _259  and  _260
REMARK  101  A    between atoms: _263  and  _265
REMARK  102  A    between atoms: _265  and  _266
REMARK  103  A    between atoms: _265  and  _268
REMARK  104  A    between atoms: _268  and  _269
REMARK                            x       y       z     vdW  Elec       q    Type
REMARK                         _______ _______ _______ _____ _____    ______ ____
ROOT
ATOM      1  O   HOH     1       4.189   5.431  28.074  0.00  0.00    +0.000 OA
ENDROOT
TORSDOF 0
REMARK  Name = ../refined-set-2016/1gyx/1gyx_pocket.pdb
REMARK  104 active torsions:
REMARK  status: ('A' for Active; 'I' for Inactive)
REMARK    1  A    between atoms: _1  and  _3
REMARK    2  A    between atoms: _3  and  _4
REMARK    3  A    between atoms: _3  and  _6
REMARK    4  A    between atoms: _6  and  _7
REMARK    5  A    between atoms: _10  and  _12
REMARK    6  A    between atoms: _12  and  _13
REMARK    7  A    between atoms: _12  and  _15
REMARK    8  A    between atoms: _15  and  _16
REMARK    9  A    between atoms: _16  and  _17
REMARK   10  A    between atoms: _17  and  _18
REMARK   11  A    between atoms: _18  and  _19
REMARK   12  A    between atoms: _23  and  _25
REMARK   13  A    between atoms: _25  and  _26
REMARK   14  A    between atoms: _25  and  _28
REMARK   15  A    between atoms: _30  and  _32
REMARK   16  A    between atoms: _32  and  _33
REMARK   17  A    between atoms: _32  and  _35
REMARK   18  A    between atoms: _35  and  _36
REMARK   19  A    between atoms: _43  and  _44
REMARK   20  A    between atoms: _49  and  _51
REMARK   21  A    between atoms: _51  and  _52
REMARK   22  A    between atoms: _51  and  _54
REMARK   23  A    between atoms: _54  and  _55
REMARK   24  A    between atoms: _55  and  _56
REMARK   25  A    between atoms: _56  and  _57
REMARK   26  A    between atoms: _66  and  _68
REMARK   27  A    between atoms: _68  and  _69
REMARK   28  A    between atoms: _68  and  _71
REMARK   29  A    between atoms: _71  and  _72
REMARK   30  A    between atoms: _72  and  _73
REMARK   31  A    between atoms: _78  and  _80
REMARK   32  A    between atoms: _80  and  _81
REMARK   33  A    between atoms: _80  and  _83
REMARK   34  A    between atoms: _83  and  _84
REMARK   35  A    between atoms: _88  and  _89
REMARK   36  A    between atoms: _94  and  _96
REMARK   37  A    between atoms: _96  and  _97
REMARK   38  A    between atoms: _96  and  _99
REMARK   39  A    between atoms: _99  and  _100
REMARK   40  A    between atoms: _110  and  _112
REMARK   41  A    between atoms: _112  and  _113
REMARK   42  A    between atoms: _112  and  _115
REMARK   43  A    between atoms: _115  and  _116
REMARK   44  A    between atoms: _126  and  _128
REMARK   45  A    between atoms: _128  and  _129
REMARK   46  A    between atoms: _128  and  _131
REMARK   47  A    between atoms: _131  and  _132
REMARK   48  A    between atoms: _136  and  _137
REMARK   49  A    between atoms: _142  and  _144
REMARK   50  A    between atoms: _144  and  _145
REMARK   51  A    between atoms: _147  and  _149
REMARK   52  A    between atoms: _149  and  _150
REMARK   53  A    between atoms: _149  and  _152
REMARK   54  A    between atoms: _152  and  _153
REMARK   55  A    between atoms: _158  and  _159
REMARK   56  A    between atoms: _161  and  _163
REMARK   57  A    between atoms: _163  and  _164
REMARK   58  A    between atoms: _163  and  _166
REMARK   59  A    between atoms: _166  and  _167
REMARK   60  A    between atoms: _167  and  _168
REMARK   61  A    between atoms: _171  and  _172
REMARK   62  A    between atoms: _177  and  _179
REMARK   63  A    between atoms: _179  and  _180
REMARK   64  A    between atoms: _179  and  _182
REMARK   65  A    between atoms: _182  and  _183
REMARK   66  A    between atoms: _188  and  _190
REMARK   67  A    between atoms: _190  and  _191
REMARK   68  A    between atoms: _190  and  _193
REMARK   69  A    between atoms: _193  and  _194
REMARK   70  A    between atoms: _197  and  _199
REMARK   71  A    between atoms: _199  and  _200
REMARK   72  A    between atoms: _199  and  _202
REMARK   73  A    between atoms: _202  and  _203
REMARK   74  A    between atoms: _206  and  _208
REMARK   75  A    between atoms: _208  and  _209
REMARK   76  A    between atoms: _208  and  _211
REMARK   77  A    between atoms: _211  and  _212
REMARK   78  A    between atoms: _217  and  _219
REMARK   79  A    between atoms: _219  and  _220
REMARK   80  A    between atoms: _219  and  _222
REMARK   81  A    between atoms: _222  and  _223
REMARK   82  A    between atoms: _225  and  _227
REMARK   83  A    between atoms: _227  and  _228
REMARK   84  A    between atoms: _227  and  _230
REMARK   85  A    between atoms: _230  and  _231
REMARK   86  A    between atoms: _231  and  _232
REMARK   87  A    between atoms: _232  and  _233
REMARK   88  A    between atoms: _233  and  _234
REMARK   89  A    between atoms: _238  and  _240
REMARK   90  A    between atoms: _240  and  _241
REMARK   91  A    between atoms: _240  and  _243
REMARK   92  A    between atoms: _243  and  _244
REMARK   93  A    between atoms: _246  and  _248
REMARK   94  A    between atoms: _248  and  _249
REMARK   95  A    between atoms: _248  and  _251
REMARK   96  A    between atoms: _251  and  _252
REMARK   97  A    between atoms: _254  and  _256
REMARK   98  A    between atoms: _256  and  _257
REMARK   99  A    between atoms: _256  and  _259
REMARK  100  A    between atoms: _259  and  _260
REMARK  101  A    between atoms: _263  and  _265
REMARK  102  A    between atoms: _265  and  _266
REMARK  103  A    between atoms: _265  and  _268
REMARK  104  A    between atoms: _268  and  _269
REMARK                            x       y       z     vdW  Elec       q    Type
REMARK                         _______ _______ _______ _____ _____    ______ ____
ROOT
ATOM      1  O   HOH     1       5.731   7.232  26.690  0.00  0.00    +0.000 OA
ENDROOT
TORSDOF 0
REMARK  Name = ../refined-set-2016/1gyx/1gyx_pocket.pdb
REMARK  104 active torsions:
REMARK  status: ('A' for Active; 'I' for Inactive)
REMARK    1  A    between atoms: _1  and  _3
REMARK    2  A    between atoms: _3  and  _4
REMARK    3  A    between atoms: _3  and  _6
REMARK    4  A    between atoms: _6  and  _7
REMARK    5  A    between atoms: _10  and  _12
REMARK    6  A    between atoms: _12  and  _13
REMARK    7  A    between atoms: _12  and  _15
REMARK    8  A    between atoms: _15  and  _16
REMARK    9  A    between atoms: _16  and  _17
REMARK   10  A    between atoms: _17  and  _18
REMARK   11  A    between atoms: _18  and  _19
REMARK   12  A    between atoms: _23  and  _25
REMARK   13  A    between atoms: _25  and  _26
REMARK   14  A    between atoms: _25  and  _28
REMARK   15  A    between atoms: _30  and  _32
REMARK   16  A    between atoms: _32  and  _33
REMARK   17  A    between atoms: _32  and  _35
REMARK   18  A    between atoms: _35  and  _36
REMARK   19  A    between atoms: _43  and  _44
REMARK   20  A    between atoms: _49  and  _51
REMARK   21  A    between atoms: _51  and  _52
REMARK   22  A    between atoms: _51  and  _54
REMARK   23  A    between atoms: _54  and  _55
REMARK   24  A    between atoms: _55  and  _56
REMARK   25  A    between atoms: _56  and  _57
REMARK   26  A    between atoms: _66  and  _68
REMARK   27  A    between atoms: _68  and  _69
REMARK   28  A    between atoms: _68  and  _71
REMARK   29  A    between atoms: _71  and  _72
REMARK   30  A    between atoms: _72  and  _73
REMARK   31  A    between atoms: _78  and  _80
REMARK   32  A    between atoms: _80  and  _81
REMARK   33  A    between atoms: _80  and  _83
REMARK   34  A    between atoms: _83  and  _84
REMARK   35  A    between atoms: _88  and  _89
REMARK   36  A    between atoms: _94  and  _96
REMARK   37  A    between atoms: _96  and  _97
REMARK   38  A    between atoms: _96  and  _99
REMARK   39  A    between atoms: _99  and  _100
REMARK   40  A    between atoms: _110  and  _112
REMARK   41  A    between atoms: _112  and  _113
REMARK   42  A    between atoms: _112  and  _115
REMARK   43  A    between atoms: _115  and  _116
REMARK   44  A    between atoms: _126  and  _128
REMARK   45  A    between atoms: _128  and  _129
REMARK   46  A    between atoms: _128  and  _131
REMARK   47  A    between atoms: _131  and  _132
REMARK   48  A    between atoms: _136  and  _137
REMARK   49  A    between atoms: _142  and  _144
REMARK   50  A    between atoms: _144  and  _145
REMARK   51  A    between atoms: _147  and  _149
REMARK   52  A    between atoms: _149  and  _150
REMARK   53  A    between atoms: _149  and  _152
REMARK   54  A    between atoms: _152  and  _153
REMARK   55  A    between atoms: _158  and  _159
REMARK   56  A    between atoms: _161  and  _163
REMARK   57  A    between atoms: _163  and  _164
REMARK   58  A    between atoms: _163  and  _166
REMARK   59  A    between atoms: _166  and  _167
REMARK   60  A    between atoms: _167  and  _168
REMARK   61  A    between atoms: _171  and  _172
REMARK   62  A    between atoms: _177  and  _179
REMARK   63  A    between atoms: _179  and  _180
REMARK   64  A    between atoms: _179  and  _182
REMARK   65  A    between atoms: _182  and  _183
REMARK   66  A    between atoms: _188  and  _190
REMARK   67  A    between atoms: _190  and  _191
REMARK   68  A    between atoms: _190  and  _193
REMARK   69  A    between atoms: _193  and  _194
REMARK   70  A    between atoms: _197  and  _199
REMARK   71  A    between atoms: _199  and  _200
REMARK   72  A    between atoms: _199  and  _202
REMARK   73  A    between atoms: _202  and  _203
REMARK   74  A    between atoms: _206  and  _208
REMARK   75  A    between atoms: _208  and  _209
REMARK   76  A    between atoms: _208  and  _211
REMARK   77  A    between atoms: _211  and  _212
REMARK   78  A    between atoms: _217  and  _219
REMARK   79  A    between atoms: _219  and  _220
REMARK   80  A    between atoms: _219  and  _222
REMARK   81  A    between atoms: _222  and  _223
REMARK   82  A    between atoms: _225  and  _227
REMARK   83  A    between atoms: _227  and  _228
REMARK   84  A    between atoms: _227  and  _230
REMARK   85  A    between atoms: _230  and  _231
REMARK   86  A    between atoms: _231  and  _232
REMARK   87  A    between atoms: _232  and  _233
REMARK   88  A    between atoms: _233  and  _234
REMARK   89  A    between atoms: _238  and  _240
REMARK   90  A    between atoms: _240  and  _241
REMARK   91  A    between atoms: _240  and  _243
REMARK   92  A    between atoms: _243  and  _244
REMARK   93  A    between atoms: _246  and  _248
REMARK   94  A    between atoms: _248  and  _249
REMARK   95  A    between atoms: _248  and  _251
REMARK   96  A    between atoms: _251  and  _252
REMARK   97  A    between atoms: _254  and  _256
REMARK   98  A    between atoms: _256  and  _257
REMARK   99  A    between atoms: _256  and  _259
REMARK  100  A    between atoms: _259  and  _260
REMARK  101  A    between atoms: _263  and  _265
REMARK  102  A    between atoms: _265  and  _266
REMARK  103  A    between atoms: _265  and  _268
REMARK  104  A    between atoms: _268  and  _269
REMARK                            x       y       z     vdW  Elec       q    Type
REMARK                         _______ _______ _______ _____ _____    ______ ____
ROOT
ATOM      1  O   HOH     1       8.799  -1.733  28.375  0.00  0.00    +0.000 OA
ENDROOT
TORSDOF 0
REMARK  Name = ../refined-set-2016/1gyx/1gyx_pocket.pdb
REMARK  104 active torsions:
REMARK  status: ('A' for Active; 'I' for Inactive)
REMARK    1  A    between atoms: _1  and  _3
REMARK    2  A    between atoms: _3  and  _4
REMARK    3  A    between atoms: _3  and  _6
REMARK    4  A    between atoms: _6  and  _7
REMARK    5  A    between atoms: _10  and  _12
REMARK    6  A    between atoms: _12  and  _13
REMARK    7  A    between atoms: _12  and  _15
REMARK    8  A    between atoms: _15  and  _16
REMARK    9  A    between atoms: _16  and  _17
REMARK   10  A    between atoms: _17  and  _18
REMARK   11  A    between atoms: _18  and  _19
REMARK   12  A    between atoms: _23  and  _25
REMARK   13  A    between atoms: _25  and  _26
REMARK   14  A    between atoms: _25  and  _28
REMARK   15  A    between atoms: _30  and  _32
REMARK   16  A    between atoms: _32  and  _33
REMARK   17  A    between atoms: _32  and  _35
REMARK   18  A    between atoms: _35  and  _36
REMARK   19  A    between atoms: _43  and  _44
REMARK   20  A    between atoms: _49  and  _51
REMARK   21  A    between atoms: _51  and  _52
REMARK   22  A    between atoms: _51  and  _54
REMARK   23  A    between atoms: _54  and  _55
REMARK   24  A    between atoms: _55  and  _56
REMARK   25  A    between atoms: _56  and  _57
REMARK   26  A    between atoms: _66  and  _68
REMARK   27  A    between atoms: _68  and  _69
REMARK   28  A    between atoms: _68  and  _71
REMARK   29  A    between atoms: _71  and  _72
REMARK   30  A    between atoms: _72  and  _73
REMARK   31  A    between atoms: _78  and  _80
REMARK   32  A    between atoms: _80  and  _81
REMARK   33  A    between atoms: _80  and  _83
REMARK   34  A    between atoms: _83  and  _84
REMARK   35  A    between atoms: _88  and  _89
REMARK   36  A    between atoms: _94  and  _96
REMARK   37  A    between atoms: _96  and  _97
REMARK   38  A    between atoms: _96  and  _99
REMARK   39  A    between atoms: _99  and  _100
REMARK   40  A    between atoms: _110  and  _112
REMARK   41  A    between atoms: _112  and  _113
REMARK   42  A    between atoms: _112  and  _115
REMARK   43  A    between atoms: _115  and  _116
REMARK   44  A    between atoms: _126  and  _128
REMARK   45  A    between atoms: _128  and  _129
REMARK   46  A    between atoms: _128  and  _131
REMARK   47  A    between atoms: _131  and  _132
REMARK   48  A    between atoms: _136  and  _137
REMARK   49  A    between atoms: _142  and  _144
REMARK   50  A    between atoms: _144  and  _145
REMARK   51  A    between atoms: _147  and  _149
REMARK   52  A    between atoms: _149  and  _150
REMARK   53  A    between atoms: _149  and  _152
REMARK   54  A    between atoms: _152  and  _153
REMARK   55  A    between atoms: _158  and  _159
REMARK   56  A    between atoms: _161  and  _163
REMARK   57  A    between atoms: _163  and  _164
REMARK   58  A    between atoms: _163  and  _166
REMARK   59  A    between atoms: _166  and  _167
REMARK   60  A    between atoms: _167  and  _168
REMARK   61  A    between atoms: _171  and  _172
REMARK   62  A    between atoms: _177  and  _179
REMARK   63  A    between atoms: _179  and  _180
REMARK   64  A    between atoms: _179  and  _182
REMARK   65  A    between atoms: _182  and  _183
REMARK   66  A    between atoms: _188  and  _190
REMARK   67  A    between atoms: _190  and  _191
REMARK   68  A    between atoms: _190  and  _193
REMARK   69  A    between atoms: _193  and  _194
REMARK   70  A    between atoms: _197  and  _199
REMARK   71  A    between atoms: _199  and  _200
REMARK   72  A    between atoms: _199  and  _202
REMARK   73  A    between atoms: _202  and  _203
REMARK   74  A    between atoms: _206  and  _208
REMARK   75  A    between atoms: _208  and  _209
REMARK   76  A    between atoms: _208  and  _211
REMARK   77  A    between atoms: _211  and  _212
REMARK   78  A    between atoms: _217  and  _219
REMARK   79  A    between atoms: _219  and  _220
REMARK   80  A    between atoms: _219  and  _222
REMARK   81  A    between atoms: _222  and  _223
REMARK   82  A    between atoms: _225  and  _227
REMARK   83  A    between atoms: _227  and  _228
REMARK   84  A    between atoms: _227  and  _230
REMARK   85  A    between atoms: _230  and  _231
REMARK   86  A    between atoms: _231  and  _232
REMARK   87  A    between atoms: _232  and  _233
REMARK   88  A    between atoms: _233  and  _234
REMARK   89  A    between atoms: _238  and  _240
REMARK   90  A    between atoms: _240  and  _241
REMARK   91  A    between atoms: _240  and  _243
REMARK   92  A    between atoms: _243  and  _244
REMARK   93  A    between atoms: _246  and  _248
REMARK   94  A    between atoms: _248  and  _249
REMARK   95  A    between atoms: _248  and  _251
REMARK   96  A    between atoms: _251  and  _252
REMARK   97  A    between atoms: _254  and  _256
REMARK   98  A    between atoms: _256  and  _257
REMARK   99  A    between atoms: _256  and  _259
REMARK  100  A    between atoms: _259  and  _260
REMARK  101  A    between atoms: _263  and  _265
REMARK  102  A    between atoms: _265  and  _266
REMARK  103  A    between atoms: _265  and  _268
REMARK  104  A    between atoms: _268  and  _269
REMARK                            x       y       z     vdW  Elec       q    Type
REMARK                         _______ _______ _______ _____ _____    ______ ____
ROOT
ATOM      1  O   HOH     1      15.190   0.129  20.511  0.00  0.00    +0.000 OA
ENDROOT
TORSDOF 0
REMARK  Name = ../refined-set-2016/1gyx/1gyx_pocket.pdb
REMARK  104 active torsions:
REMARK  status: ('A' for Active; 'I' for Inactive)
REMARK    1  A    between atoms: _1  and  _3
REMARK    2  A    between atoms: _3  and  _4
REMARK    3  A    between atoms: _3  and  _6
REMARK    4  A    between atoms: _6  and  _7
REMARK    5  A    between atoms: _10  and  _12
REMARK    6  A    between atoms: _12  and  _13
REMARK    7  A    between atoms: _12  and  _15
REMARK    8  A    between atoms: _15  and  _16
REMARK    9  A    between atoms: _16  and  _17
REMARK   10  A    between atoms: _17  and  _18
REMARK   11  A    between atoms: _18  and  _19
REMARK   12  A    between atoms: _23  and  _25
REMARK   13  A    between atoms: _25  and  _26
REMARK   14  A    between atoms: _25  and  _28
REMARK   15  A    between atoms: _30  and  _32
REMARK   16  A    between atoms: _32  and  _33
REMARK   17  A    between atoms: _32  and  _35
REMARK   18  A    between atoms: _35  and  _36
REMARK   19  A    between atoms: _43  and  _44
REMARK   20  A    between atoms: _49  and  _51
REMARK   21  A    between atoms: _51  and  _52
REMARK   22  A    between atoms: _51  and  _54
REMARK   23  A    between atoms: _54  and  _55
REMARK   24  A    between atoms: _55  and  _56
REMARK   25  A    between atoms: _56  and  _57
REMARK   26  A    between atoms: _66  and  _68
REMARK   27  A    between atoms: _68  and  _69
REMARK   28  A    between atoms: _68  and  _71
REMARK   29  A    between atoms: _71  and  _72
REMARK   30  A    between atoms: _72  and  _73
REMARK   31  A    between atoms: _78  and  _80
REMARK   32  A    between atoms: _80  and  _81
REMARK   33  A    between atoms: _80  and  _83
REMARK   34  A    between atoms: _83  and  _84
REMARK   35  A    between atoms: _88  and  _89
REMARK   36  A    between atoms: _94  and  _96
REMARK   37  A    between atoms: _96  and  _97
REMARK   38  A    between atoms: _96  and  _99
REMARK   39  A    between atoms: _99  and  _100
REMARK   40  A    between atoms: _110  and  _112
REMARK   41  A    between atoms: _112  and  _113
REMARK   42  A    between atoms: _112  and  _115
REMARK   43  A    between atoms: _115  and  _116
REMARK   44  A    between atoms: _126  and  _128
REMARK   45  A    between atoms: _128  and  _129
REMARK   46  A    between atoms: _128  and  _131
REMARK   47  A    between atoms: _131  and  _132
REMARK   48  A    between atoms: _136  and  _137
REMARK   49  A    between atoms: _142  and  _144
REMARK   50  A    between atoms: _144  and  _145
REMARK   51  A    between atoms: _147  and  _149
REMARK   52  A    between atoms: _149  and  _150
REMARK   53  A    between atoms: _149  and  _152
REMARK   54  A    between atoms: _152  and  _153
REMARK   55  A    between atoms: _158  and  _159
REMARK   56  A    between atoms: _161  and  _163
REMARK   57  A    between atoms: _163  and  _164
REMARK   58  A    between atoms: _163  and  _166
REMARK   59  A    between atoms: _166  and  _167
REMARK   60  A    between atoms: _167  and  _168
REMARK   61  A    between atoms: _171  and  _172
REMARK   62  A    between atoms: _177  and  _179
REMARK   63  A    between atoms: _179  and  _180
REMARK   64  A    between atoms: _179  and  _182
REMARK   65  A    between atoms: _182  and  _183
REMARK   66  A    between atoms: _188  and  _190
REMARK   67  A    between atoms: _190  and  _191
REMARK   68  A    between atoms: _190  and  _193
REMARK   69  A    between atoms: _193  and  _194
REMARK   70  A    between atoms: _197  and  _199
REMARK   71  A    between atoms: _199  and  _200
REMARK   72  A    between atoms: _199  and  _202
REMARK   73  A    between atoms: _202  and  _203
REMARK   74  A    between atoms: _206  and  _208
REMARK   75  A    between atoms: _208  and  _209
REMARK   76  A    between atoms: _208  and  _211
REMARK   77  A    between atoms: _211  and  _212
REMARK   78  A    between atoms: _217  and  _219
REMARK   79  A    between atoms: _219  and  _220
REMARK   80  A    between atoms: _219  and  _222
REMARK   81  A    between atoms: _222  and  _223
REMARK   82  A    between atoms: _225  and  _227
REMARK   83  A    between atoms: _227  and  _228
REMARK   84  A    between atoms: _227  and  _230
REMARK   85  A    between atoms: _230  and  _231
REMARK   86  A    between atoms: _231  and  _232
REMARK   87  A    between atoms: _232  and  _233
REMARK   88  A    between atoms: _233  and  _234
REMARK   89  A    between atoms: _238  and  _240
REMARK   90  A    between atoms: _240  and  _241
REMARK   91  A    between atoms: _240  and  _243
REMARK   92  A    between atoms: _243  and  _244
REMARK   93  A    between atoms: _246  and  _248
REMARK   94  A    between atoms: _248  and  _249
REMARK   95  A    between atoms: _248  and  _251
REMARK   96  A    between atoms: _251  and  _252
REMARK   97  A    between atoms: _254  and  _256
REMARK   98  A    between atoms: _256  and  _257
REMARK   99  A    between atoms: _256  and  _259
REMARK  100  A    between atoms: _259  and  _260
REMARK  101  A    between atoms: _263  and  _265
REMARK  102  A    between atoms: _265  and  _266
REMARK  103  A    between atoms: _265  and  _268
REMARK  104  A    between atoms: _268  and  _269
REMARK                            x       y       z     vdW  Elec       q    Type
REMARK                         _______ _______ _______ _____ _____    ______ ____
ROOT
ATOM      1  O   HOH     1      10.625   6.638  26.442  0.00  0.00    +0.000 OA
ENDROOT
TORSDOF 0
REMARK  Name = ../refined-set-2016/1gyx/1gyx_pocket.pdb
REMARK  104 active torsions:
REMARK  status: ('A' for Active; 'I' for Inactive)
REMARK    1  A    between atoms: _1  and  _3
REMARK    2  A    between atoms: _3  and  _4
REMARK    3  A    between atoms: _3  and  _6
REMARK    4  A    between atoms: _6  and  _7
REMARK    5  A    between atoms: _10  and  _12
REMARK    6  A    between atoms: _12  and  _13
REMARK    7  A    between atoms: _12  and  _15
REMARK    8  A    between atoms: _15  and  _16
REMARK    9  A    between atoms: _16  and  _17
REMARK   10  A    between atoms: _17  and  _18
REMARK   11  A    between atoms: _18  and  _19
REMARK   12  A    between atoms: _23  and  _25
REMARK   13  A    between atoms: _25  and  _26
REMARK   14  A    between atoms: _25  and  _28
REMARK   15  A    between atoms: _30  and  _32
REMARK   16  A    between atoms: _32  and  _33
REMARK   17  A    between atoms: _32  and  _35
REMARK   18  A    between atoms: _35  and  _36
REMARK   19  A    between atoms: _43  and  _44
REMARK   20  A    between atoms: _49  and  _51
REMARK   21  A    between atoms: _51  and  _52
REMARK   22  A    between atoms: _51  and  _54
REMARK   23  A    between atoms: _54  and  _55
REMARK   24  A    between atoms: _55  and  _56
REMARK   25  A    between atoms: _56  and  _57
REMARK   26  A    between atoms: _66  and  _68
REMARK   27  A    between atoms: _68  and  _69
REMARK   28  A    between atoms: _68  and  _71
REMARK   29  A    between atoms: _71  and  _72
REMARK   30  A    between atoms: _72  and  _73
REMARK   31  A    between atoms: _78  and  _80
REMARK   32  A    between atoms: _80  and  _81
REMARK   33  A    between atoms: _80  and  _83
REMARK   34  A    between atoms: _83  and  _84
REMARK   35  A    between atoms: _88  and  _89
REMARK   36  A    between atoms: _94  and  _96
REMARK   37  A    between atoms: _96  and  _97
REMARK   38  A    between atoms: _96  and  _99
REMARK   39  A    between atoms: _99  and  _100
REMARK   40  A    between atoms: _110  and  _112
REMARK   41  A    between atoms: _112  and  _113
REMARK   42  A    between atoms: _112  and  _115
REMARK   43  A    between atoms: _115  and  _116
REMARK   44  A    between atoms: _126  and  _128
REMARK   45  A    between atoms: _128  and  _129
REMARK   46  A    between atoms: _128  and  _131
REMARK   47  A    between atoms: _131  and  _132
REMARK   48  A    between atoms: _136  and  _137
REMARK   49  A    between atoms: _142  and  _144
REMARK   50  A    between atoms: _144  and  _145
REMARK   51  A    between atoms: _147  and  _149
REMARK   52  A    between atoms: _149  and  _150
REMARK   53  A    between atoms: _149  and  _152
REMARK   54  A    between atoms: _152  and  _153
REMARK   55  A    between atoms: _158  and  _159
REMARK   56  A    between atoms: _161  and  _163
REMARK   57  A    between atoms: _163  and  _164
REMARK   58  A    between atoms: _163  and  _166
REMARK   59  A    between atoms: _166  and  _167
REMARK   60  A    between atoms: _167  and  _168
REMARK   61  A    between atoms: _171  and  _172
REMARK   62  A    between atoms: _177  and  _179
REMARK   63  A    between atoms: _179  and  _180
REMARK   64  A    between atoms: _179  and  _182
REMARK   65  A    between atoms: _182  and  _183
REMARK   66  A    between atoms: _188  and  _190
REMARK   67  A    between atoms: _190  and  _191
REMARK   68  A    between atoms: _190  and  _193
REMARK   69  A    between atoms: _193  and  _194
REMARK   70  A    between atoms: _197  and  _199
REMARK   71  A    between atoms: _199  and  _200
REMARK   72  A    between atoms: _199  and  _202
REMARK   73  A    between atoms: _202  and  _203
REMARK   74  A    between atoms: _206  and  _208
REMARK   75  A    between atoms: _208  and  _209
REMARK   76  A    between atoms: _208  and  _211
REMARK   77  A    between atoms: _211  and  _212
REMARK   78  A    between atoms: _217  and  _219
REMARK   79  A    between atoms: _219  and  _220
REMARK   80  A    between atoms: _219  and  _222
REMARK   81  A    between atoms: _222  and  _223
REMARK   82  A    between atoms: _225  and  _227
REMARK   83  A    between atoms: _227  and  _228
REMARK   84  A    between atoms: _227  and  _230
REMARK   85  A    between atoms: _230  and  _231
REMARK   86  A    between atoms: _231  and  _232
REMARK   87  A    between atoms: _232  and  _233
REMARK   88  A    between atoms: _233  and  _234
REMARK   89  A    between atoms: _238  and  _240
REMARK   90  A    between atoms: _240  and  _241
REMARK   91  A    between atoms: _240  and  _243
REMARK   92  A    between atoms: _243  and  _244
REMARK   93  A    between atoms: _246  and  _248
REMARK   94  A    between atoms: _248  and  _249
REMARK   95  A    between atoms: _248  and  _251
REMARK   96  A    between atoms: _251  and  _252
REMARK   97  A    between atoms: _254  and  _256
REMARK   98  A    between atoms: _256  and  _257
REMARK   99  A    between atoms: _256  and  _259
REMARK  100  A    between atoms: _259  and  _260
REMARK  101  A    between atoms: _263  and  _265
REMARK  102  A    between atoms: _265  and  _266
REMARK  103  A    between atoms: _265  and  _268
REMARK  104  A    between atoms: _268  and  _269
REMARK                            x       y       z     vdW  Elec       q    Type
REMARK                         _______ _______ _______ _____ _____    ______ ____
ROOT
ATOM      1  O   HOH     1      13.028   7.355  23.767  0.00  0.00    +0.000 OA
ENDROOT
TORSDOF 0
REMARK  Name = ../refined-set-2016/1gyx/1gyx_pocket.pdb
REMARK  104 active torsions:
REMARK  status: ('A' for Active; 'I' for Inactive)
REMARK    1  A    between atoms: _1  and  _3
REMARK    2  A    between atoms: _3  and  _4
REMARK    3  A    between atoms: _3  and  _6
REMARK    4  A    between atoms: _6  and  _7
REMARK    5  A    between atoms: _10  and  _12
REMARK    6  A    between atoms: _12  and  _13
REMARK    7  A    between atoms: _12  and  _15
REMARK    8  A    between atoms: _15  and  _16
REMARK    9  A    between atoms: _16  and  _17
REMARK   10  A    between atoms: _17  and  _18
REMARK   11  A    between atoms: _18  and  _19
REMARK   12  A    between atoms: _23  and  _25
REMARK   13  A    between atoms: _25  and  _26
REMARK   14  A    between atoms: _25  and  _28
REMARK   15  A    between atoms: _30  and  _32
REMARK   16  A    between atoms: _32  and  _33
REMARK   17  A    between atoms: _32  and  _35
REMARK   18  A    between atoms: _35  and  _36
REMARK   19  A    between atoms: _43  and  _44
REMARK   20  A    between atoms: _49  and  _51
REMARK   21  A    between atoms: _51  and  _52
REMARK   22  A    between atoms: _51  and  _54
REMARK   23  A    between atoms: _54  and  _55
REMARK   24  A    between atoms: _55  and  _56
REMARK   25  A    between atoms: _56  and  _57
REMARK   26  A    between atoms: _66  and  _68
REMARK   27  A    between atoms: _68  and  _69
REMARK   28  A    between atoms: _68  and  _71
REMARK   29  A    between atoms: _71  and  _72
REMARK   30  A    between atoms: _72  and  _73
REMARK   31  A    between atoms: _78  and  _80
REMARK   32  A    between atoms: _80  and  _81
REMARK   33  A    between atoms: _80  and  _83
REMARK   34  A    between atoms: _83  and  _84
REMARK   35  A    between atoms: _88  and  _89
REMARK   36  A    between atoms: _94  and  _96
REMARK   37  A    between atoms: _96  and  _97
REMARK   38  A    between atoms: _96  and  _99
REMARK   39  A    between atoms: _99  and  _100
REMARK   40  A    between atoms: _110  and  _112
REMARK   41  A    between atoms: _112  and  _113
REMARK   42  A    between atoms: _112  and  _115
REMARK   43  A    between atoms: _115  and  _116
REMARK   44  A    between atoms: _126  and  _128
REMARK   45  A    between atoms: _128  and  _129
REMARK   46  A    between atoms: _128  and  _131
REMARK   47  A    between atoms: _131  and  _132
REMARK   48  A    between atoms: _136  and  _137
REMARK   49  A    between atoms: _142  and  _144
REMARK   50  A    between atoms: _144  and  _145
REMARK   51  A    between atoms: _147  and  _149
REMARK   52  A    between atoms: _149  and  _150
REMARK   53  A    between atoms: _149  and  _152
REMARK   54  A    between atoms: _152  and  _153
REMARK   55  A    between atoms: _158  and  _159
REMARK   56  A    between atoms: _161  and  _163
REMARK   57  A    between atoms: _163  and  _164
REMARK   58  A    between atoms: _163  and  _166
REMARK   59  A    between atoms: _166  and  _167
REMARK   60  A    between atoms: _167  and  _168
REMARK   61  A    between atoms: _171  and  _172
REMARK   62  A    between atoms: _177  and  _179
REMARK   63  A    between atoms: _179  and  _180
REMARK   64  A    between atoms: _179  and  _182
REMARK   65  A    between atoms: _182  and  _183
REMARK   66  A    between atoms: _188  and  _190
REMARK   67  A    between atoms: _190  and  _191
REMARK   68  A    between atoms: _190  and  _193
REMARK   69  A    between atoms: _193  and  _194
REMARK   70  A    between atoms: _197  and  _199
REMARK   71  A    between atoms: _199  and  _200
REMARK   72  A    between atoms: _199  and  _202
REMARK   73  A    between atoms: _202  and  _203
REMARK   74  A    between atoms: _206  and  _208
REMARK   75  A    between atoms: _208  and  _209
REMARK   76  A    between atoms: _208  and  _211
REMARK   77  A    between atoms: _211  and  _212
REMARK   78  A    between atoms: _217  and  _219
REMARK   79  A    between atoms: _219  and  _220
REMARK   80  A    between atoms: _219  and  _222
REMARK   81  A    between atoms: _222  and  _223
REMARK   82  A    between atoms: _225  and  _227
REMARK   83  A    between atoms: _227  and  _228
REMARK   84  A    between atoms: _227  and  _230
REMARK   85  A    between atoms: _230  and  _231
REMARK   86  A    between atoms: _231  and  _232
REMARK   87  A    between atoms: _232  and  _233
REMARK   88  A    between atoms: _233  and  _234
REMARK   89  A    between atoms: _238  and  _240
REMARK   90  A    between atoms: _240  and  _241
REMARK   91  A    between atoms: _240  and  _243
REMARK   92  A    between atoms: _243  and  _244
REMARK   93  A    between atoms: _246  and  _248
REMARK   94  A    between atoms: _248  and  _249
REMARK   95  A    between atoms: _248  and  _251
REMARK   96  A    between atoms: _251  and  _252
REMARK   97  A    between atoms: _254  and  _256
REMARK   98  A    between atoms: _256  and  _257
REMARK   99  A    between atoms: _256  and  _259
REMARK  100  A    between atoms: _259  and  _260
REMARK  101  A    between atoms: _263  and  _265
REMARK  102  A    between atoms: _265  and  _266
REMARK  103  A    between atoms: _265  and  _268
REMARK  104  A    between atoms: _268  and  _269
REMARK                            x       y       z     vdW  Elec       q    Type
REMARK                         _______ _______ _______ _____ _____    ______ ____
ROOT
ATOM      1  O   HOH     1      13.597  10.661  26.954  0.00  0.00    +0.000 OA
ENDROOT
TORSDOF 0
REMARK  Name = ../refined-set-2016/1gyx/1gyx_pocket.pdb
REMARK  104 active torsions:
REMARK  status: ('A' for Active; 'I' for Inactive)
REMARK    1  A    between atoms: _1  and  _3
REMARK    2  A    between atoms: _3  and  _4
REMARK    3  A    between atoms: _3  and  _6
REMARK    4  A    between atoms: _6  and  _7
REMARK    5  A    between atoms: _10  and  _12
REMARK    6  A    between atoms: _12  and  _13
REMARK    7  A    between atoms: _12  and  _15
REMARK    8  A    between atoms: _15  and  _16
REMARK    9  A    between atoms: _16  and  _17
REMARK   10  A    between atoms: _17  and  _18
REMARK   11  A    between atoms: _18  and  _19
REMARK   12  A    between atoms: _23  and  _25
REMARK   13  A    between atoms: _25  and  _26
REMARK   14  A    between atoms: _25  and  _28
REMARK   15  A    between atoms: _30  and  _32
REMARK   16  A    between atoms: _32  and  _33
REMARK   17  A    between atoms: _32  and  _35
REMARK   18  A    between atoms: _35  and  _36
REMARK   19  A    between atoms: _43  and  _44
REMARK   20  A    between atoms: _49  and  _51
REMARK   21  A    between atoms: _51  and  _52
REMARK   22  A    between atoms: _51  and  _54
REMARK   23  A    between atoms: _54  and  _55
REMARK   24  A    between atoms: _55  and  _56
REMARK   25  A    between atoms: _56  and  _57
REMARK   26  A    between atoms: _66  and  _68
REMARK   27  A    between atoms: _68  and  _69
REMARK   28  A    between atoms: _68  and  _71
REMARK   29  A    between atoms: _71  and  _72
REMARK   30  A    between atoms: _72  and  _73
REMARK   31  A    between atoms: _78  and  _80
REMARK   32  A    between atoms: _80  and  _81
REMARK   33  A    between atoms: _80  and  _83
REMARK   34  A    between atoms: _83  and  _84
REMARK   35  A    between atoms: _88  and  _89
REMARK   36  A    between atoms: _94  and  _96
REMARK   37  A    between atoms: _96  and  _97
REMARK   38  A    between atoms: _96  and  _99
REMARK   39  A    between atoms: _99  and  _100
REMARK   40  A    between atoms: _110  and  _112
REMARK   41  A    between atoms: _112  and  _113
REMARK   42  A    between atoms: _112  and  _115
REMARK   43  A    between atoms: _115  and  _116
REMARK   44  A    between atoms: _126  and  _128
REMARK   45  A    between atoms: _128  and  _129
REMARK   46  A    between atoms: _128  and  _131
REMARK   47  A    between atoms: _131  and  _132
REMARK   48  A    between atoms: _136  and  _137
REMARK   49  A    between atoms: _142  and  _144
REMARK   50  A    between atoms: _144  and  _145
REMARK   51  A    between atoms: _147  and  _149
REMARK   52  A    between atoms: _149  and  _150
REMARK   53  A    between atoms: _149  and  _152
REMARK   54  A    between atoms: _152  and  _153
REMARK   55  A    between atoms: _158  and  _159
REMARK   56  A    between atoms: _161  and  _163
REMARK   57  A    between atoms: _163  and  _164
REMARK   58  A    between atoms: _163  and  _166
REMARK   59  A    between atoms: _166  and  _167
REMARK   60  A    between atoms: _167  and  _168
REMARK   61  A    between atoms: _171  and  _172
REMARK   62  A    between atoms: _177  and  _179
REMARK   63  A    between atoms: _179  and  _180
REMARK   64  A    between atoms: _179  and  _182
REMARK   65  A    between atoms: _182  and  _183
REMARK   66  A    between atoms: _188  and  _190
REMARK   67  A    between atoms: _190  and  _191
REMARK   68  A    between atoms: _190  and  _193
REMARK   69  A    between atoms: _193  and  _194
REMARK   70  A    between atoms: _197  and  _199
REMARK   71  A    between atoms: _199  and  _200
REMARK   72  A    between atoms: _199  and  _202
REMARK   73  A    between atoms: _202  and  _203
REMARK   74  A    between atoms: _206  and  _208
REMARK   75  A    between atoms: _208  and  _209
REMARK   76  A    between atoms: _208  and  _211
REMARK   77  A    between atoms: _211  and  _212
REMARK   78  A    between atoms: _217  and  _219
REMARK   79  A    between atoms: _219  and  _220
REMARK   80  A    between atoms: _219  and  _222
REMARK   81  A    between atoms: _222  and  _223
REMARK   82  A    between atoms: _225  and  _227
REMARK   83  A    between atoms: _227  and  _228
REMARK   84  A    between atoms: _227  and  _230
REMARK   85  A    between atoms: _230  and  _231
REMARK   86  A    between atoms: _231  and  _232
REMARK   87  A    between atoms: _232  and  _233
REMARK   88  A    between atoms: _233  and  _234
REMARK   89  A    between atoms: _238  and  _240
REMARK   90  A    between atoms: _240  and  _241
REMARK   91  A    between atoms: _240  and  _243
REMARK   92  A    between atoms: _243  and  _244
REMARK   93  A    between atoms: _246  and  _248
REMARK   94  A    between atoms: _248  and  _249
REMARK   95  A    between atoms: _248  and  _251
REMARK   96  A    between atoms: _251  and  _252
REMARK   97  A    between atoms: _254  and  _256
REMARK   98  A    between atoms: _256  and  _257
REMARK   99  A    between atoms: _256  and  _259
REMARK  100  A    between atoms: _259  and  _260
REMARK  101  A    between atoms: _263  and  _265
REMARK  102  A    between atoms: _265  and  _266
REMARK  103  A    between atoms: _265  and  _268
REMARK  104  A    between atoms: _268  and  _269
REMARK                            x       y       z     vdW  Elec       q    Type
REMARK                         _______ _______ _______ _____ _____    ______ ____
ROOT
ATOM      1  O   HOH     1      12.095   8.755  21.896  0.00  0.00    +0.000 OA
ENDROOT
TORSDOF 0
REMARK  Name = ../refined-set-2016/1gyx/1gyx_pocket.pdb
REMARK  104 active torsions:
REMARK  status: ('A' for Active; 'I' for Inactive)
REMARK    1  A    between atoms: _1  and  _3
REMARK    2  A    between atoms: _3  and  _4
REMARK    3  A    between atoms: _3  and  _6
REMARK    4  A    between atoms: _6  and  _7
REMARK    5  A    between atoms: _10  and  _12
REMARK    6  A    between atoms: _12  and  _13
REMARK    7  A    between atoms: _12  and  _15
REMARK    8  A    between atoms: _15  and  _16
REMARK    9  A    between atoms: _16  and  _17
REMARK   10  A    between atoms: _17  and  _18
REMARK   11  A    between atoms: _18  and  _19
REMARK   12  A    between atoms: _23  and  _25
REMARK   13  A    between atoms: _25  and  _26
REMARK   14  A    between atoms: _25  and  _28
REMARK   15  A    between atoms: _30  and  _32
REMARK   16  A    between atoms: _32  and  _33
REMARK   17  A    between atoms: _32  and  _35
REMARK   18  A    between atoms: _35  and  _36
REMARK   19  A    between atoms: _43  and  _44
REMARK   20  A    between atoms: _49  and  _51
REMARK   21  A    between atoms: _51  and  _52
REMARK   22  A    between atoms: _51  and  _54
REMARK   23  A    between atoms: _54  and  _55
REMARK   24  A    between atoms: _55  and  _56
REMARK   25  A    between atoms: _56  and  _57
REMARK   26  A    between atoms: _66  and  _68
REMARK   27  A    between atoms: _68  and  _69
REMARK   28  A    between atoms: _68  and  _71
REMARK   29  A    between atoms: _71  and  _72
REMARK   30  A    between atoms: _72  and  _73
REMARK   31  A    between atoms: _78  and  _80
REMARK   32  A    between atoms: _80  and  _81
REMARK   33  A    between atoms: _80  and  _83
REMARK   34  A    between atoms: _83  and  _84
REMARK   35  A    between atoms: _88  and  _89
REMARK   36  A    between atoms: _94  and  _96
REMARK   37  A    between atoms: _96  and  _97
REMARK   38  A    between atoms: _96  and  _99
REMARK   39  A    between atoms: _99  and  _100
REMARK   40  A    between atoms: _110  and  _112
REMARK   41  A    between atoms: _112  and  _113
REMARK   42  A    between atoms: _112  and  _115
REMARK   43  A    between atoms: _115  and  _116
REMARK   44  A    between atoms: _126  and  _128
REMARK   45  A    between atoms: _128  and  _129
REMARK   46  A    between atoms: _128  and  _131
REMARK   47  A    between atoms: _131  and  _132
REMARK   48  A    between atoms: _136  and  _137
REMARK   49  A    between atoms: _142  and  _144
REMARK   50  A    between atoms: _144  and  _145
REMARK   51  A    between atoms: _147  and  _149
REMARK   52  A    between atoms: _149  and  _150
REMARK   53  A    between atoms: _149  and  _152
REMARK   54  A    between atoms: _152  and  _153
REMARK   55  A    between atoms: _158  and  _159
REMARK   56  A    between atoms: _161  and  _163
REMARK   57  A    between atoms: _163  and  _164
REMARK   58  A    between atoms: _163  and  _166
REMARK   59  A    between atoms: _166  and  _167
REMARK   60  A    between atoms: _167  and  _168
REMARK   61  A    between atoms: _171  and  _172
REMARK   62  A    between atoms: _177  and  _179
REMARK   63  A    between atoms: _179  and  _180
REMARK   64  A    between atoms: _179  and  _182
REMARK   65  A    between atoms: _182  and  _183
REMARK   66  A    between atoms: _188  and  _190
REMARK   67  A    between atoms: _190  and  _191
REMARK   68  A    between atoms: _190  and  _193
REMARK   69  A    between atoms: _193  and  _194
REMARK   70  A    between atoms: _197  and  _199
REMARK   71  A    between atoms: _199  and  _200
REMARK   72  A    between atoms: _199  and  _202
REMARK   73  A    between atoms: _202  and  _203
REMARK   74  A    between atoms: _206  and  _208
REMARK   75  A    between atoms: _208  and  _209
REMARK   76  A    between atoms: _208  and  _211
REMARK   77  A    between atoms: _211  and  _212
REMARK   78  A    between atoms: _217  and  _219
REMARK   79  A    between atoms: _219  and  _220
REMARK   80  A    between atoms: _219  and  _222
REMARK   81  A    between atoms: _222  and  _223
REMARK   82  A    between atoms: _225  and  _227
REMARK   83  A    between atoms: _227  and  _228
REMARK   84  A    between atoms: _227  and  _230
REMARK   85  A    between atoms: _230  and  _231
REMARK   86  A    between atoms: _231  and  _232
REMARK   87  A    between atoms: _232  and  _233
REMARK   88  A    between atoms: _233  and  _234
REMARK   89  A    between atoms: _238  and  _240
REMARK   90  A    between atoms: _240  and  _241
REMARK   91  A    between atoms: _240  and  _243
REMARK   92  A    between atoms: _243  and  _244
REMARK   93  A    between atoms: _246  and  _248
REMARK   94  A    between atoms: _248  and  _249
REMARK   95  A    between atoms: _248  and  _251
REMARK   96  A    between atoms: _251  and  _252
REMARK   97  A    between atoms: _254  and  _256
REMARK   98  A    between atoms: _256  and  _257
REMARK   99  A    between atoms: _256  and  _259
REMARK  100  A    between atoms: _259  and  _260
REMARK  101  A    between atoms: _263  and  _265
REMARK  102  A    between atoms: _265  and  _266
REMARK  103  A    between atoms: _265  and  _268
REMARK  104  A    between atoms: _268  and  _269
REMARK                            x       y       z     vdW  Elec       q    Type
REMARK                         _______ _______ _______ _____ _____    ______ ____
ROOT
ATOM      1  O   HOH     1      16.622   4.101  27.583  0.00  0.00    +0.000 OA
ENDROOT
TORSDOF 0
REMARK  Name = ../refined-set-2016/1gyx/1gyx_pocket.pdb
REMARK  104 active torsions:
REMARK  status: ('A' for Active; 'I' for Inactive)
REMARK    1  A    between atoms: _1  and  _3
REMARK    2  A    between atoms: _3  and  _4
REMARK    3  A    between atoms: _3  and  _6
REMARK    4  A    between atoms: _6  and  _7
REMARK    5  A    between atoms: _10  and  _12
REMARK    6  A    between atoms: _12  and  _13
REMARK    7  A    between atoms: _12  and  _15
REMARK    8  A    between atoms: _15  and  _16
REMARK    9  A    between atoms: _16  and  _17
REMARK   10  A    between atoms: _17  and  _18
REMARK   11  A    between atoms: _18  and  _19
REMARK   12  A    between atoms: _23  and  _25
REMARK   13  A    between atoms: _25  and  _26
REMARK   14  A    between atoms: _25  and  _28
REMARK   15  A    between atoms: _30  and  _32
REMARK   16  A    between atoms: _32  and  _33
REMARK   17  A    between atoms: _32  and  _35
REMARK   18  A    between atoms: _35  and  _36
REMARK   19  A    between atoms: _43  and  _44
REMARK   20  A    between atoms: _49  and  _51
REMARK   21  A    between atoms: _51  and  _52
REMARK   22  A    between atoms: _51  and  _54
REMARK   23  A    between atoms: _54  and  _55
REMARK   24  A    between atoms: _55  and  _56
REMARK   25  A    between atoms: _56  and  _57
REMARK   26  A    between atoms: _66  and  _68
REMARK   27  A    between atoms: _68  and  _69
REMARK   28  A    between atoms: _68  and  _71
REMARK   29  A    between atoms: _71  and  _72
REMARK   30  A    between atoms: _72  and  _73
REMARK   31  A    between atoms: _78  and  _80
REMARK   32  A    between atoms: _80  and  _81
REMARK   33  A    between atoms: _80  and  _83
REMARK   34  A    between atoms: _83  and  _84
REMARK   35  A    between atoms: _88  and  _89
REMARK   36  A    between atoms: _94  and  _96
REMARK   37  A    between atoms: _96  and  _97
REMARK   38  A    between atoms: _96  and  _99
REMARK   39  A    between atoms: _99  and  _100
REMARK   40  A    between atoms: _110  and  _112
REMARK   41  A    between atoms: _112  and  _113
REMARK   42  A    between atoms: _112  and  _115
REMARK   43  A    between atoms: _115  and  _116
REMARK   44  A    between atoms: _126  and  _128
REMARK   45  A    between atoms: _128  and  _129
REMARK   46  A    between atoms: _128  and  _131
REMARK   47  A    between atoms: _131  and  _132
REMARK   48  A    between atoms: _136  and  _137
REMARK   49  A    between atoms: _142  and  _144
REMARK   50  A    between atoms: _144  and  _145
REMARK   51  A    between atoms: _147  and  _149
REMARK   52  A    between atoms: _149  and  _150
REMARK   53  A    between atoms: _149  and  _152
REMARK   54  A    between atoms: _152  and  _153
REMARK   55  A    between atoms: _158  and  _159
REMARK   56  A    between atoms: _161  and  _163
REMARK   57  A    between atoms: _163  and  _164
REMARK   58  A    between atoms: _163  and  _166
REMARK   59  A    between atoms: _166  and  _167
REMARK   60  A    between atoms: _167  and  _168
REMARK   61  A    between atoms: _171  and  _172
REMARK   62  A    between atoms: _177  and  _179
REMARK   63  A    between atoms: _179  and  _180
REMARK   64  A    between atoms: _179  and  _182
REMARK   65  A    between atoms: _182  and  _183
REMARK   66  A    between atoms: _188  and  _190
REMARK   67  A    between atoms: _190  and  _191
REMARK   68  A    between atoms: _190  and  _193
REMARK   69  A    between atoms: _193  and  _194
REMARK   70  A    between atoms: _197  and  _199
REMARK   71  A    between atoms: _199  and  _200
REMARK   72  A    between atoms: _199  and  _202
REMARK   73  A    between atoms: _202  and  _203
REMARK   74  A    between atoms: _206  and  _208
REMARK   75  A    between atoms: _208  and  _209
REMARK   76  A    between atoms: _208  and  _211
REMARK   77  A    between atoms: _211  and  _212
REMARK   78  A    between atoms: _217  and  _219
REMARK   79  A    between atoms: _219  and  _220
REMARK   80  A    between atoms: _219  and  _222
REMARK   81  A    between atoms: _222  and  _223
REMARK   82  A    between atoms: _225  and  _227
REMARK   83  A    between atoms: _227  and  _228
REMARK   84  A    between atoms: _227  and  _230
REMARK   85  A    between atoms: _230  and  _231
REMARK   86  A    between atoms: _231  and  _232
REMARK   87  A    between atoms: _232  and  _233
REMARK   88  A    between atoms: _233  and  _234
REMARK   89  A    between atoms: _238  and  _240
REMARK   90  A    between atoms: _240  and  _241
REMARK   91  A    between atoms: _240  and  _243
REMARK   92  A    between atoms: _243  and  _244
REMARK   93  A    between atoms: _246  and  _248
REMARK   94  A    between atoms: _248  and  _249
REMARK   95  A    between atoms: _248  and  _251
REMARK   96  A    between atoms: _251  and  _252
REMARK   97  A    between atoms: _254  and  _256
REMARK   98  A    between atoms: _256  and  _257
REMARK   99  A    between atoms: _256  and  _259
REMARK  100  A    between atoms: _259  and  _260
REMARK  101  A    between atoms: _263  and  _265
REMARK  102  A    between atoms: _265  and  _266
REMARK  103  A    between atoms: _265  and  _268
REMARK  104  A    between atoms: _268  and  _269
REMARK                            x       y       z     vdW  Elec       q    Type
REMARK                         _______ _______ _______ _____ _____    ______ ____
ROOT
ATOM      1  O   HOH     1      15.020   7.429  25.414  0.00  0.00    +0.000 OA
ENDROOT
TORSDOF 0
