REMARK  Name = ../refined-set-2016/4k9y/4k9y_pocket.pdb
REMARK  281 active torsions:
REMARK  status: ('A' for Active; 'I' for Inactive)
REMARK    1  A    between atoms: _1  and  _3
REMARK    2  A    between atoms: _3  and  _4
REMARK    3  A    between atoms: _3  and  _6
REMARK    4  A    between atoms: _6  and  _7
REMARK    5  A    between atoms: _7  and  _8
REMARK    6  A    between atoms: _8  and  _9
REMARK    7  A    between atoms: _18  and  _20
REMARK    8  A    between atoms: _20  and  _21
REMARK    9  A    between atoms: _20  and  _23
REMARK   10  A    between atoms: _23  and  _24
REMARK   11  A    between atoms: _27  and  _29
REMARK   12  A    between atoms: _29  and  _30
REMARK   13  A    between atoms: _32  and  _34
REMARK   14  A    between atoms: _34  and  _35
REMARK   15  A    between atoms: _34  and  _37
REMARK   16  A    between atoms: _37  and  _38
REMARK   17  A    between atoms: _38  and  _39
REMARK   18  A    between atoms: _42  and  _44
REMARK   19  A    between atoms: _44  and  _45
REMARK   20  A    between atoms: _44  and  _47
REMARK   21  A    between atoms: _47  and  _48
REMARK   22  A    between atoms: _54  and  _56
REMARK   23  A    between atoms: _56  and  _57
REMARK   24  A    between atoms: _56  and  _59
REMARK   25  A    between atoms: _62  and  _64
REMARK   26  A    between atoms: _64  and  _65
REMARK   27  A    between atoms: _64  and  _67
REMARK   28  A    between atoms: _67  and  _68
REMARK   29  A    between atoms: _73  and  _75
REMARK   30  A    between atoms: _75  and  _76
REMARK   31  A    between atoms: _75  and  _78
REMARK   32  A    between atoms: _78  and  _79
REMARK   33  A    between atoms: _79  and  _80
REMARK   34  A    between atoms: _85  and  _87
REMARK   35  A    between atoms: _87  and  _88
REMARK   36  A    between atoms: _91  and  _93
REMARK   37  A    between atoms: _93  and  _94
REMARK   38  A    between atoms: _93  and  _96
REMARK   39  A    between atoms: _99  and  _101
REMARK   40  A    between atoms: _101  and  _102
REMARK   41  A    between atoms: _105  and  _107
REMARK   42  A    between atoms: _107  and  _108
REMARK   43  A    between atoms: _107  and  _110
REMARK   44  A    between atoms: _110  and  _111
REMARK   45  A    between atoms: _114  and  _116
REMARK   46  A    between atoms: _116  and  _117
REMARK   47  A    between atoms: _116  and  _119
REMARK   48  A    between atoms: _119  and  _120
REMARK   49  A    between atoms: _120  and  _121
REMARK   50  A    between atoms: _121  and  _122
REMARK   51  A    between atoms: _122  and  _123
REMARK   52  A    between atoms: _127  and  _129
REMARK   53  A    between atoms: _129  and  _130
REMARK   54  A    between atoms: _129  and  _132
REMARK   55  A    between atoms: _132  and  _133
REMARK   56  A    between atoms: _133  and  _134
REMARK   57  A    between atoms: _134  and  _135
REMARK   58  A    between atoms: _135  and  _136
REMARK   59  A    between atoms: _140  and  _142
REMARK   60  A    between atoms: _142  and  _143
REMARK   61  A    between atoms: _142  and  _145
REMARK   62  A    between atoms: _145  and  _146
REMARK   63  A    between atoms: _152  and  _154
REMARK   64  A    between atoms: _154  and  _155
REMARK   65  A    between atoms: _154  and  _157
REMARK   66  A    between atoms: _157  and  _158
REMARK   67  A    between atoms: _161  and  _163
REMARK   68  A    between atoms: _163  and  _164
REMARK   69  A    between atoms: _163  and  _166
REMARK   70  A    between atoms: _166  and  _167
REMARK   71  A    between atoms: _167  and  _168
REMARK   72  A    between atoms: _173  and  _175
REMARK   73  A    between atoms: _175  and  _176
REMARK   74  A    between atoms: _175  and  _178
REMARK   75  A    between atoms: _178  and  _179
REMARK   76  A    between atoms: _179  and  _180
REMARK   77  A    between atoms: _183  and  _185
REMARK   78  A    between atoms: _185  and  _186
REMARK   79  A    between atoms: _189  and  _191
REMARK   80  A    between atoms: _191  and  _192
REMARK   81  A    between atoms: _191  and  _194
REMARK   82  A    between atoms: _194  and  _195
REMARK   83  A    between atoms: _198  and  _200
REMARK   84  A    between atoms: _200  and  _201
REMARK   85  A    between atoms: _200  and  _203
REMARK   86  A    between atoms: _203  and  _204
REMARK   87  A    between atoms: _207  and  _209
REMARK   88  A    between atoms: _209  and  _210
REMARK   89  A    between atoms: _209  and  _212
REMARK   90  A    between atoms: _212  and  _213
REMARK   91  A    between atoms: _213  and  _214
REMARK   92  A    between atoms: _216  and  _218
REMARK   93  A    between atoms: _218  and  _219
REMARK   94  A    between atoms: _218  and  _221
REMARK   95  A    between atoms: _221  and  _222
REMARK   96  A    between atoms: _222  and  _223
REMARK   97  A    between atoms: _223  and  _224
REMARK   98  A    between atoms: _233  and  _235
REMARK   99  A    between atoms: _235  and  _236
REMARK  100  A    between atoms: _235  and  _238
REMARK  101  A    between atoms: _238  and  _239
REMARK  102  A    between atoms: _239  and  _240
REMARK  103  A    between atoms: _245  and  _247
REMARK  104  A    between atoms: _247  and  _248
REMARK  105  A    between atoms: _247  and  _250
REMARK  106  A    between atoms: _250  and  _251
REMARK  107  A    between atoms: _257  and  _259
REMARK  108  A    between atoms: _259  and  _260
REMARK  109  A    between atoms: _259  and  _262
REMARK  110  A    between atoms: _262  and  _263
REMARK  111  A    between atoms: _266  and  _268
REMARK  112  A    between atoms: _268  and  _269
REMARK  113  A    between atoms: _268  and  _271
REMARK  114  A    between atoms: _271  and  _272
REMARK  115  A    between atoms: _277  and  _279
REMARK  116  A    between atoms: _279  and  _280
REMARK  117  A    between atoms: _279  and  _282
REMARK  118  A    between atoms: _282  and  _283
REMARK  119  A    between atoms: _286  and  _288
REMARK  120  A    between atoms: _288  and  _289
REMARK  121  A    between atoms: _288  and  _291
REMARK  122  A    between atoms: _294  and  _296
REMARK  123  A    between atoms: _296  and  _297
REMARK  124  A    between atoms: _296  and  _299
REMARK  125  A    between atoms: _299  and  _300
REMARK  126  A    between atoms: _300  and  _301
REMARK  127  A    between atoms: _301  and  _302
REMARK  128  A    between atoms: _302  and  _303
REMARK  129  A    between atoms: _307  and  _309
REMARK  130  A    between atoms: _309  and  _310
REMARK  131  A    between atoms: _309  and  _312
REMARK  132  A    between atoms: _312  and  _313
REMARK  133  A    between atoms: _316  and  _318
REMARK  134  A    between atoms: _318  and  _319
REMARK  135  A    between atoms: _318  and  _321
REMARK  136  A    between atoms: _321  and  _322
REMARK  137  A    between atoms: _325  and  _327
REMARK  138  A    between atoms: _327  and  _328
REMARK  139  A    between atoms: _327  and  _330
REMARK  140  A    between atoms: _330  and  _331
REMARK  141  A    between atoms: _334  and  _336
REMARK  142  A    between atoms: _336  and  _337
REMARK  143  A    between atoms: _336  and  _339
REMARK  144  A    between atoms: _339  and  _340
REMARK  145  A    between atoms: _340  and  _341
REMARK  146  A    between atoms: _343  and  _345
REMARK  147  A    between atoms: _345  and  _346
REMARK  148  A    between atoms: _345  and  _348
REMARK  149  A    between atoms: _348  and  _349
REMARK  150  A    between atoms: _349  and  _350
REMARK  151  A    between atoms: _353  and  _355
REMARK  152  A    between atoms: _355  and  _356
REMARK  153  A    between atoms: _355  and  _358
REMARK  154  A    between atoms: _358  and  _359
REMARK  155  A    between atoms: _362  and  _364
REMARK  156  A    between atoms: _364  and  _365
REMARK  157  A    between atoms: _364  and  _367
REMARK  158  A    between atoms: _369  and  _371
REMARK  159  A    between atoms: _371  and  _372
REMARK  160  A    between atoms: _371  and  _374
REMARK  161  A    between atoms: _374  and  _375
REMARK  162  A    between atoms: _378  and  _380
REMARK  163  A    between atoms: _380  and  _381
REMARK  164  A    between atoms: _380  and  _383
REMARK  165  A    between atoms: _383  and  _384
REMARK  166  A    between atoms: _387  and  _389
REMARK  167  A    between atoms: _389  and  _390
REMARK  168  A    between atoms: _392  and  _394
REMARK  169  A    between atoms: _394  and  _395
REMARK  170  A    between atoms: _394  and  _397
REMARK  171  A    between atoms: _397  and  _398
REMARK  172  A    between atoms: _398  and  _399
REMARK  173  A    between atoms: _402  and  _404
REMARK  174  A    between atoms: _404  and  _405
REMARK  175  A    between atoms: _408  and  _410
REMARK  176  A    between atoms: _410  and  _411
REMARK  177  A    between atoms: _410  and  _413
REMARK  178  A    between atoms: _413  and  _414
REMARK  179  A    between atoms: _417  and  _419
REMARK  180  A    between atoms: _419  and  _420
REMARK  181  A    between atoms: _419  and  _422
REMARK  182  A    between atoms: _422  and  _423
REMARK  183  A    between atoms: _428  and  _429
REMARK  184  A    between atoms: _431  and  _433
REMARK  185  A    between atoms: _433  and  _434
REMARK  186  A    between atoms: _433  and  _436
REMARK  187  A    between atoms: _436  and  _437
REMARK  188  A    between atoms: _440  and  _442
REMARK  189  A    between atoms: _442  and  _443
REMARK  190  A    between atoms: _442  and  _445
REMARK  191  A    between atoms: _445  and  _446
REMARK  192  A    between atoms: _452  and  _454
REMARK  193  A    between atoms: _454  and  _455
REMARK  194  A    between atoms: _454  and  _457
REMARK  195  A    between atoms: _460  and  _462
REMARK  196  A    between atoms: _462  and  _463
REMARK  197  A    between atoms: _462  and  _465
REMARK  198  A    between atoms: _465  and  _466
REMARK  199  A    between atoms: _471  and  _473
REMARK  200  A    between atoms: _473  and  _474
REMARK  201  A    between atoms: _473  and  _476
REMARK  202  A    between atoms: _476  and  _477
REMARK  203  A    between atoms: _477  and  _478
REMARK  204  A    between atoms: _478  and  _479
REMARK  205  A    between atoms: _488  and  _490
REMARK  206  A    between atoms: _490  and  _491
REMARK  207  A    between atoms: _490  and  _493
REMARK  208  A    between atoms: _493  and  _494
REMARK  209  A    between atoms: _497  and  _499
REMARK  210  A    between atoms: _499  and  _500
REMARK  211  A    between atoms: _499  and  _502
REMARK  212  A    between atoms: _502  and  _503
REMARK  213  A    between atoms: _506  and  _508
REMARK  214  A    between atoms: _508  and  _509
REMARK  215  A    between atoms: _508  and  _511
REMARK  216  A    between atoms: _511  and  _512
REMARK  217  A    between atoms: _517  and  _519
REMARK  218  A    between atoms: _519  and  _520
REMARK  219  A    between atoms: _519  and  _522
REMARK  220  A    between atoms: _525  and  _527
REMARK  221  A    between atoms: _527  and  _528
REMARK  222  A    between atoms: _527  and  _530
REMARK  223  A    between atoms: _530  and  _531
REMARK  224  A    between atoms: _534  and  _536
REMARK  225  A    between atoms: _536  and  _537
REMARK  226  A    between atoms: _536  and  _539
REMARK  227  A    between atoms: _542  and  _544
REMARK  228  A    between atoms: _544  and  _545
REMARK  229  A    between atoms: _544  and  _547
REMARK  230  A    between atoms: _547  and  _548
REMARK  231  A    between atoms: _550  and  _552
REMARK  232  A    between atoms: _552  and  _553
REMARK  233  A    between atoms: _552  and  _555
REMARK  234  A    between atoms: _555  and  _556
REMARK  235  A    between atoms: _556  and  _557
REMARK  236  A    between atoms: _557  and  _558
REMARK  237  A    between atoms: _558  and  _559
REMARK  238  A    between atoms: _563  and  _565
REMARK  239  A    between atoms: _565  and  _566
REMARK  240  A    between atoms: _565  and  _568
REMARK  241  A    between atoms: _568  and  _569
REMARK  242  A    between atoms: _572  and  _574
REMARK  243  A    between atoms: _574  and  _575
REMARK  244  A    between atoms: _577  and  _579
REMARK  245  A    between atoms: _579  and  _580
REMARK  246  A    between atoms: _579  and  _582
REMARK  247  A    between atoms: _582  and  _583
REMARK  248  A    between atoms: _586  and  _588
REMARK  249  A    between atoms: _588  and  _589
REMARK  250  A    between atoms: _588  and  _591
REMARK  251  A    between atoms: _591  and  _592
REMARK  252  A    between atoms: _598  and  _600
REMARK  253  A    between atoms: _600  and  _601
REMARK  254  A    between atoms: _603  and  _605
REMARK  255  A    between atoms: _605  and  _606
REMARK  256  A    between atoms: _605  and  _608
REMARK  257  A    between atoms: _608  and  _609
REMARK  258  A    between atoms: _612  and  _614
REMARK  259  A    between atoms: _614  and  _615
REMARK  260  A    between atoms: _614  and  _617
REMARK  261  A    between atoms: _617  and  _618
REMARK  262  A    between atoms: _620  and  _622
REMARK  263  A    between atoms: _622  and  _623
REMARK  264  A    between atoms: _622  and  _625
REMARK  265  A    between atoms: _625  and  _626
REMARK  266  A    between atoms: _626  and  _627
REMARK  267  A    between atoms: _627  and  _628
REMARK  268  A    between atoms: _637  and  _639
REMARK  269  A    between atoms: _639  and  _640
REMARK  270  A    between atoms: _639  and  _642
REMARK  271  A    between atoms: _642  and  _643
REMARK  272  A    between atoms: _648  and  _649
REMARK  273  A    between atoms: _651  and  _653
REMARK  274  A    between atoms: _653  and  _654
REMARK  275  A    between atoms: _653  and  _656
REMARK  276  A    between atoms: _656  and  _657
REMARK  277  A    between atoms: _657  and  _658
REMARK  278  A    between atoms: _660  and  _662
REMARK  279  A    between atoms: _662  and  _663
REMARK  280  A    between atoms: _662  and  _665
REMARK  281  A    between atoms: _665  and  _666
REMARK                            x       y       z     vdW  Elec       q    Type
REMARK                         _______ _______ _______ _____ _____    ______ ____
ROOT
ATOM      1  NE  ARG A   1     -37.055 -35.360  12.381  0.00  0.00    -0.265 N 
ATOM      2  CZ  ARG A   1     -36.564 -34.287  13.004  0.00  0.00    +0.342 C 
ATOM      3  NH2 ARG A   1     -35.302 -34.271  13.417  0.00  0.00    -0.292 N 
ATOM      4 HH21 ARG A   1     -34.924 -33.432  13.902  0.00  0.00    +0.255 HD
ATOM      5 HH22 ARG A   1     -34.691 -35.097  13.255  0.00  0.00    +0.255 HD
ATOM      6  NH1 ARG A   1     -37.332 -33.225  13.222  0.00  0.00    -0.292 N 
ATOM      7 HH11 ARG A   1     -36.942 -32.392  13.708  0.00  0.00    +0.255 HD
ATOM      8 HH12 ARG A   1     -38.323 -33.226  12.906  0.00  0.00    +0.255 HD
ATOM      9  HE  ARG A   1     -36.416 -36.167  12.233  0.00  0.00    +0.259 HD
ENDROOT
BRANCH   1  10
ATOM     10  CD  ARG A   1     -38.434 -35.482  11.889  0.00  0.00    +0.174 C 
BRANCH  10  11
ATOM     11  CG  ARG A   1     -38.549 -35.065  10.432  0.00  0.00    +0.045 C 
BRANCH  11  12
ATOM     12  CB  ARG A   1     -39.996 -34.851   9.959  0.00  0.00    +0.029 C 
BRANCH  12  13
ATOM     13  CA  ARG A   1     -40.124 -34.201   8.554  0.00  0.00    +0.133 C 
BRANCH  13  14
ATOM     14  N   ARG A   1     -40.006 -35.215   7.509  0.00  0.00    -0.239 NA
ATOM     15  H   ARG A   1     -39.735 -36.179   7.791  0.00  0.00    +0.142 HD
ENDBRANCH  13  14
BRANCH  13  16
ATOM     16  C   ARG A   1     -39.120 -33.041   8.394  0.00  0.00    +0.224 C 
ATOM     17  O   ARG A   1     -38.016 -33.223   7.858  0.00  0.00    -0.287 OA
ENDBRANCH  13  16
ENDBRANCH  12  13
ENDBRANCH  11  12
ENDBRANCH  10  11
ENDBRANCH   1  10
TORSDOF 6
REMARK  Name = ../refined-set-2016/4k9y/4k9y_pocket.pdb
REMARK  281 active torsions:
REMARK  status: ('A' for Active; 'I' for Inactive)
REMARK    1  A    between atoms: _1  and  _3
REMARK    2  A    between atoms: _3  and  _4
REMARK    3  A    between atoms: _3  and  _6
REMARK    4  A    between atoms: _6  and  _7
REMARK    5  A    between atoms: _7  and  _8
REMARK    6  A    between atoms: _8  and  _9
REMARK    7  A    between atoms: _18  and  _20
REMARK    8  A    between atoms: _20  and  _21
REMARK    9  A    between atoms: _20  and  _23
REMARK   10  A    between atoms: _23  and  _24
REMARK   11  A    between atoms: _27  and  _29
REMARK   12  A    between atoms: _29  and  _30
REMARK   13  A    between atoms: _32  and  _34
REMARK   14  A    between atoms: _34  and  _35
REMARK   15  A    between atoms: _34  and  _37
REMARK   16  A    between atoms: _37  and  _38
REMARK   17  A    between atoms: _38  and  _39
REMARK   18  A    between atoms: _42  and  _44
REMARK   19  A    between atoms: _44  and  _45
REMARK   20  A    between atoms: _44  and  _47
REMARK   21  A    between atoms: _47  and  _48
REMARK   22  A    between atoms: _54  and  _56
REMARK   23  A    between atoms: _56  and  _57
REMARK   24  A    between atoms: _56  and  _59
REMARK   25  A    between atoms: _62  and  _64
REMARK   26  A    between atoms: _64  and  _65
REMARK   27  A    between atoms: _64  and  _67
REMARK   28  A    between atoms: _67  and  _68
REMARK   29  A    between atoms: _73  and  _75
REMARK   30  A    between atoms: _75  and  _76
REMARK   31  A    between atoms: _75  and  _78
REMARK   32  A    between atoms: _78  and  _79
REMARK   33  A    between atoms: _79  and  _80
REMARK   34  A    between atoms: _85  and  _87
REMARK   35  A    between atoms: _87  and  _88
REMARK   36  A    between atoms: _91  and  _93
REMARK   37  A    between atoms: _93  and  _94
REMARK   38  A    between atoms: _93  and  _96
REMARK   39  A    between atoms: _99  and  _101
REMARK   40  A    between atoms: _101  and  _102
REMARK   41  A    between atoms: _105  and  _107
REMARK   42  A    between atoms: _107  and  _108
REMARK   43  A    between atoms: _107  and  _110
REMARK   44  A    between atoms: _110  and  _111
REMARK   45  A    between atoms: _114  and  _116
REMARK   46  A    between atoms: _116  and  _117
REMARK   47  A    between atoms: _116  and  _119
REMARK   48  A    between atoms: _119  and  _120
REMARK   49  A    between atoms: _120  and  _121
REMARK   50  A    between atoms: _121  and  _122
REMARK   51  A    between atoms: _122  and  _123
REMARK   52  A    between atoms: _127  and  _129
REMARK   53  A    between atoms: _129  and  _130
REMARK   54  A    between atoms: _129  and  _132
REMARK   55  A    between atoms: _132  and  _133
REMARK   56  A    between atoms: _133  and  _134
REMARK   57  A    between atoms: _134  and  _135
REMARK   58  A    between atoms: _135  and  _136
REMARK   59  A    between atoms: _140  and  _142
REMARK   60  A    between atoms: _142  and  _143
REMARK   61  A    between atoms: _142  and  _145
REMARK   62  A    between atoms: _145  and  _146
REMARK   63  A    between atoms: _152  and  _154
REMARK   64  A    between atoms: _154  and  _155
REMARK   65  A    between atoms: _154  and  _157
REMARK   66  A    between atoms: _157  and  _158
REMARK   67  A    between atoms: _161  and  _163
REMARK   68  A    between atoms: _163  and  _164
REMARK   69  A    between atoms: _163  and  _166
REMARK   70  A    between atoms: _166  and  _167
REMARK   71  A    between atoms: _167  and  _168
REMARK   72  A    between atoms: _173  and  _175
REMARK   73  A    between atoms: _175  and  _176
REMARK   74  A    between atoms: _175  and  _178
REMARK   75  A    between atoms: _178  and  _179
REMARK   76  A    between atoms: _179  and  _180
REMARK   77  A    between atoms: _183  and  _185
REMARK   78  A    between atoms: _185  and  _186
REMARK   79  A    between atoms: _189  and  _191
REMARK   80  A    between atoms: _191  and  _192
REMARK   81  A    between atoms: _191  and  _194
REMARK   82  A    between atoms: _194  and  _195
REMARK   83  A    between atoms: _198  and  _200
REMARK   84  A    between atoms: _200  and  _201
REMARK   85  A    between atoms: _200  and  _203
REMARK   86  A    between atoms: _203  and  _204
REMARK   87  A    between atoms: _207  and  _209
REMARK   88  A    between atoms: _209  and  _210
REMARK   89  A    between atoms: _209  and  _212
REMARK   90  A    between atoms: _212  and  _213
REMARK   91  A    between atoms: _213  and  _214
REMARK   92  A    between atoms: _216  and  _218
REMARK   93  A    between atoms: _218  and  _219
REMARK   94  A    between atoms: _218  and  _221
REMARK   95  A    between atoms: _221  and  _222
REMARK   96  A    between atoms: _222  and  _223
REMARK   97  A    between atoms: _223  and  _224
REMARK   98  A    between atoms: _233  and  _235
REMARK   99  A    between atoms: _235  and  _236
REMARK  100  A    between atoms: _235  and  _238
REMARK  101  A    between atoms: _238  and  _239
REMARK  102  A    between atoms: _239  and  _240
REMARK  103  A    between atoms: _245  and  _247
REMARK  104  A    between atoms: _247  and  _248
REMARK  105  A    between atoms: _247  and  _250
REMARK  106  A    between atoms: _250  and  _251
REMARK  107  A    between atoms: _257  and  _259
REMARK  108  A    between atoms: _259  and  _260
REMARK  109  A    between atoms: _259  and  _262
REMARK  110  A    between atoms: _262  and  _263
REMARK  111  A    between atoms: _266  and  _268
REMARK  112  A    between atoms: _268  and  _269
REMARK  113  A    between atoms: _268  and  _271
REMARK  114  A    between atoms: _271  and  _272
REMARK  115  A    between atoms: _277  and  _279
REMARK  116  A    between atoms: _279  and  _280
REMARK  117  A    between atoms: _279  and  _282
REMARK  118  A    between atoms: _282  and  _283
REMARK  119  A    between atoms: _286  and  _288
REMARK  120  A    between atoms: _288  and  _289
REMARK  121  A    between atoms: _288  and  _291
REMARK  122  A    between atoms: _294  and  _296
REMARK  123  A    between atoms: _296  and  _297
REMARK  124  A    between atoms: _296  and  _299
REMARK  125  A    between atoms: _299  and  _300
REMARK  126  A    between atoms: _300  and  _301
REMARK  127  A    between atoms: _301  and  _302
REMARK  128  A    between atoms: _302  and  _303
REMARK  129  A    between atoms: _307  and  _309
REMARK  130  A    between atoms: _309  and  _310
REMARK  131  A    between atoms: _309  and  _312
REMARK  132  A    between atoms: _312  and  _313
REMARK  133  A    between atoms: _316  and  _318
REMARK  134  A    between atoms: _318  and  _319
REMARK  135  A    between atoms: _318  and  _321
REMARK  136  A    between atoms: _321  and  _322
REMARK  137  A    between atoms: _325  and  _327
REMARK  138  A    between atoms: _327  and  _328
REMARK  139  A    between atoms: _327  and  _330
REMARK  140  A    between atoms: _330  and  _331
REMARK  141  A    between atoms: _334  and  _336
REMARK  142  A    between atoms: _336  and  _337
REMARK  143  A    between atoms: _336  and  _339
REMARK  144  A    between atoms: _339  and  _340
REMARK  145  A    between atoms: _340  and  _341
REMARK  146  A    between atoms: _343  and  _345
REMARK  147  A    between atoms: _345  and  _346
REMARK  148  A    between atoms: _345  and  _348
REMARK  149  A    between atoms: _348  and  _349
REMARK  150  A    between atoms: _349  and  _350
REMARK  151  A    between atoms: _353  and  _355
REMARK  152  A    between atoms: _355  and  _356
REMARK  153  A    between atoms: _355  and  _358
REMARK  154  A    between atoms: _358  and  _359
REMARK  155  A    between atoms: _362  and  _364
REMARK  156  A    between atoms: _364  and  _365
REMARK  157  A    between atoms: _364  and  _367
REMARK  158  A    between atoms: _369  and  _371
REMARK  159  A    between atoms: _371  and  _372
REMARK  160  A    between atoms: _371  and  _374
REMARK  161  A    between atoms: _374  and  _375
REMARK  162  A    between atoms: _378  and  _380
REMARK  163  A    between atoms: _380  and  _381
REMARK  164  A    between atoms: _380  and  _383
REMARK  165  A    between atoms: _383  and  _384
REMARK  166  A    between atoms: _387  and  _389
REMARK  167  A    between atoms: _389  and  _390
REMARK  168  A    between atoms: _392  and  _394
REMARK  169  A    between atoms: _394  and  _395
REMARK  170  A    between atoms: _394  and  _397
REMARK  171  A    between atoms: _397  and  _398
REMARK  172  A    between atoms: _398  and  _399
REMARK  173  A    between atoms: _402  and  _404
REMARK  174  A    between atoms: _404  and  _405
REMARK  175  A    between atoms: _408  and  _410
REMARK  176  A    between atoms: _410  and  _411
REMARK  177  A    between atoms: _410  and  _413
REMARK  178  A    between atoms: _413  and  _414
REMARK  179  A    between atoms: _417  and  _419
REMARK  180  A    between atoms: _419  and  _420
REMARK  181  A    between atoms: _419  and  _422
REMARK  182  A    between atoms: _422  and  _423
REMARK  183  A    between atoms: _428  and  _429
REMARK  184  A    between atoms: _431  and  _433
REMARK  185  A    between atoms: _433  and  _434
REMARK  186  A    between atoms: _433  and  _436
REMARK  187  A    between atoms: _436  and  _437
REMARK  188  A    between atoms: _440  and  _442
REMARK  189  A    between atoms: _442  and  _443
REMARK  190  A    between atoms: _442  and  _445
REMARK  191  A    between atoms: _445  and  _446
REMARK  192  A    between atoms: _452  and  _454
REMARK  193  A    between atoms: _454  and  _455
REMARK  194  A    between atoms: _454  and  _457
REMARK  195  A    between atoms: _460  and  _462
REMARK  196  A    between atoms: _462  and  _463
REMARK  197  A    between atoms: _462  and  _465
REMARK  198  A    between atoms: _465  and  _466
REMARK  199  A    between atoms: _471  and  _473
REMARK  200  A    between atoms: _473  and  _474
REMARK  201  A    between atoms: _473  and  _476
REMARK  202  A    between atoms: _476  and  _477
REMARK  203  A    between atoms: _477  and  _478
REMARK  204  A    between atoms: _478  and  _479
REMARK  205  A    between atoms: _488  and  _490
REMARK  206  A    between atoms: _490  and  _491
REMARK  207  A    between atoms: _490  and  _493
REMARK  208  A    between atoms: _493  and  _494
REMARK  209  A    between atoms: _497  and  _499
REMARK  210  A    between atoms: _499  and  _500
REMARK  211  A    between atoms: _499  and  _502
REMARK  212  A    between atoms: _502  and  _503
REMARK  213  A    between atoms: _506  and  _508
REMARK  214  A    between atoms: _508  and  _509
REMARK  215  A    between atoms: _508  and  _511
REMARK  216  A    between atoms: _511  and  _512
REMARK  217  A    between atoms: _517  and  _519
REMARK  218  A    between atoms: _519  and  _520
REMARK  219  A    between atoms: _519  and  _522
REMARK  220  A    between atoms: _525  and  _527
REMARK  221  A    between atoms: _527  and  _528
REMARK  222  A    between atoms: _527  and  _530
REMARK  223  A    between atoms: _530  and  _531
REMARK  224  A    between atoms: _534  and  _536
REMARK  225  A    between atoms: _536  and  _537
REMARK  226  A    between atoms: _536  and  _539
REMARK  227  A    between atoms: _542  and  _544
REMARK  228  A    between atoms: _544  and  _545
REMARK  229  A    between atoms: _544  and  _547
REMARK  230  A    between atoms: _547  and  _548
REMARK  231  A    between atoms: _550  and  _552
REMARK  232  A    between atoms: _552  and  _553
REMARK  233  A    between atoms: _552  and  _555
REMARK  234  A    between atoms: _555  and  _556
REMARK  235  A    between atoms: _556  and  _557
REMARK  236  A    between atoms: _557  and  _558
REMARK  237  A    between atoms: _558  and  _559
REMARK  238  A    between atoms: _563  and  _565
REMARK  239  A    between atoms: _565  and  _566
REMARK  240  A    between atoms: _565  and  _568
REMARK  241  A    between atoms: _568  and  _569
REMARK  242  A    between atoms: _572  and  _574
REMARK  243  A    between atoms: _574  and  _575
REMARK  244  A    between atoms: _577  and  _579
REMARK  245  A    between atoms: _579  and  _580
REMARK  246  A    between atoms: _579  and  _582
REMARK  247  A    between atoms: _582  and  _583
REMARK  248  A    between atoms: _586  and  _588
REMARK  249  A    between atoms: _588  and  _589
REMARK  250  A    between atoms: _588  and  _591
REMARK  251  A    between atoms: _591  and  _592
REMARK  252  A    between atoms: _598  and  _600
REMARK  253  A    between atoms: _600  and  _601
REMARK  254  A    between atoms: _603  and  _605
REMARK  255  A    between atoms: _605  and  _606
REMARK  256  A    between atoms: _605  and  _608
REMARK  257  A    between atoms: _608  and  _609
REMARK  258  A    between atoms: _612  and  _614
REMARK  259  A    between atoms: _614  and  _615
REMARK  260  A    between atoms: _614  and  _617
REMARK  261  A    between atoms: _617  and  _618
REMARK  262  A    between atoms: _620  and  _622
REMARK  263  A    between atoms: _622  and  _623
REMARK  264  A    between atoms: _622  and  _625
REMARK  265  A    between atoms: _625  and  _626
REMARK  266  A    between atoms: _626  and  _627
REMARK  267  A    between atoms: _627  and  _628
REMARK  268  A    between atoms: _637  and  _639
REMARK  269  A    between atoms: _639  and  _640
REMARK  270  A    between atoms: _639  and  _642
REMARK  271  A    between atoms: _642  and  _643
REMARK  272  A    between atoms: _648  and  _649
REMARK  273  A    between atoms: _651  and  _653
REMARK  274  A    between atoms: _653  and  _654
REMARK  275  A    between atoms: _653  and  _656
REMARK  276  A    between atoms: _656  and  _657
REMARK  277  A    between atoms: _657  and  _658
REMARK  278  A    between atoms: _660  and  _662
REMARK  279  A    between atoms: _662  and  _663
REMARK  280  A    between atoms: _662  and  _665
REMARK  281  A    between atoms: _665  and  _666
REMARK                            x       y       z     vdW  Elec       q    Type
REMARK                         _______ _______ _______ _____ _____    ______ ____
ROOT
ATOM      1  CA  GLY A   2     -34.130 -27.490  10.729  0.00  0.00    +0.176 C 
ENDROOT
BRANCH   1   4
ATOM      2  C   ILE A   1     -34.434 -29.876  11.045  0.00  0.00    +0.238 C 
ATOM      3  O   ILE A   1     -33.550 -29.940  11.903  0.00  0.00    -0.274 OA
ATOM      4  N   GLY A   2     -34.781 -28.751  10.422  0.00  0.00    -0.296 N 
ATOM      5  H   GLY A   2     -35.532 -28.776   9.703  0.00  0.00    +0.150 HD
BRANCH   2   6
ATOM      6  CA  ILE A   1     -35.167 -31.141  10.618  0.00  0.00    +0.145 C 
BRANCH   6   7
ATOM      7  N   ILE A   1     -36.264 -30.860   9.681  0.00  0.00    -0.238 NA
ATOM      8  H   ILE A   1     -36.031 -30.550   8.716  0.00  0.00    +0.142 HD
ENDBRANCH   6   7
BRANCH   6   9
ATOM      9  CB  ILE A   1     -34.181 -32.211  10.069  0.00  0.00    +0.025 C 
ATOM     10  CG2 ILE A   1     -34.914 -33.544   9.830  0.00  0.00    +0.002 C 
BRANCH   9  11
ATOM     11  CG1 ILE A   1     -33.398 -31.678   8.812  0.00  0.00    +0.002 C 
ATOM     12  CD1 ILE A   1     -32.370 -32.600   8.156  0.00  0.00    +0.000 C 
ENDBRANCH   9  11
ENDBRANCH   6   9
ENDBRANCH   2   6
ENDBRANCH   1   4
BRANCH   1  13
ATOM     13  C   GLY A   2     -34.586 -26.307   9.915  0.00  0.00    +0.243 C 
ATOM     14  N   GLU A   3     -34.105 -25.151  10.322  0.00  0.00    -0.298 N 
ATOM     15  H   GLU A   3     -33.496 -25.119  11.164  0.00  0.00    +0.150 HD
ATOM     16  O   GLY A   2     -35.381 -26.420   8.977  0.00  0.00    -0.273 OA
BRANCH  14  17
ATOM     17  CA  GLU A   3     -34.408 -23.928   9.621  0.00  0.00    +0.137 C 
BRANCH  17  18
ATOM     18  C   GLU A   3     -33.168 -23.533   8.833  0.00  0.00    +0.227 C 
ATOM     19  O   GLU A   3     -32.037 -23.947   9.157  0.00  0.00    -0.286 OA
ENDBRANCH  17  18
BRANCH  17  20
ATOM     20  CB  GLU A   3     -34.902 -22.826  10.566  0.00  0.00    +0.039 C 
BRANCH  20  21
ATOM     21  CG  GLU A   3     -33.917 -22.392  11.643  0.00  0.00    +0.116 C 
BRANCH  21  22
ATOM     22  CD  GLU A   3     -34.414 -21.251  12.512  0.00  0.00    +0.365 C 
ATOM     23  OE2 GLU A   3     -34.438 -21.420  13.753  0.00  0.00    -0.246 OA
ATOM     24  OE1 GLU A   3     -34.766 -20.182  11.958  0.00  0.00    -0.246 OA
ENDBRANCH  21  22
ENDBRANCH  20  21
ENDBRANCH  17  20
ENDBRANCH  14  17
ENDBRANCH   1  13
TORSDOF 11
REMARK  Name = ../refined-set-2016/4k9y/4k9y_pocket.pdb
REMARK  281 active torsions:
REMARK  status: ('A' for Active; 'I' for Inactive)
REMARK    1  A    between atoms: _1  and  _3
REMARK    2  A    between atoms: _3  and  _4
REMARK    3  A    between atoms: _3  and  _6
REMARK    4  A    between atoms: _6  and  _7
REMARK    5  A    between atoms: _7  and  _8
REMARK    6  A    between atoms: _8  and  _9
REMARK    7  A    between atoms: _18  and  _20
REMARK    8  A    between atoms: _20  and  _21
REMARK    9  A    between atoms: _20  and  _23
REMARK   10  A    between atoms: _23  and  _24
REMARK   11  A    between atoms: _27  and  _29
REMARK   12  A    between atoms: _29  and  _30
REMARK   13  A    between atoms: _32  and  _34
REMARK   14  A    between atoms: _34  and  _35
REMARK   15  A    between atoms: _34  and  _37
REMARK   16  A    between atoms: _37  and  _38
REMARK   17  A    between atoms: _38  and  _39
REMARK   18  A    between atoms: _42  and  _44
REMARK   19  A    between atoms: _44  and  _45
REMARK   20  A    between atoms: _44  and  _47
REMARK   21  A    between atoms: _47  and  _48
REMARK   22  A    between atoms: _54  and  _56
REMARK   23  A    between atoms: _56  and  _57
REMARK   24  A    between atoms: _56  and  _59
REMARK   25  A    between atoms: _62  and  _64
REMARK   26  A    between atoms: _64  and  _65
REMARK   27  A    between atoms: _64  and  _67
REMARK   28  A    between atoms: _67  and  _68
REMARK   29  A    between atoms: _73  and  _75
REMARK   30  A    between atoms: _75  and  _76
REMARK   31  A    between atoms: _75  and  _78
REMARK   32  A    between atoms: _78  and  _79
REMARK   33  A    between atoms: _79  and  _80
REMARK   34  A    between atoms: _85  and  _87
REMARK   35  A    between atoms: _87  and  _88
REMARK   36  A    between atoms: _91  and  _93
REMARK   37  A    between atoms: _93  and  _94
REMARK   38  A    between atoms: _93  and  _96
REMARK   39  A    between atoms: _99  and  _101
REMARK   40  A    between atoms: _101  and  _102
REMARK   41  A    between atoms: _105  and  _107
REMARK   42  A    between atoms: _107  and  _108
REMARK   43  A    between atoms: _107  and  _110
REMARK   44  A    between atoms: _110  and  _111
REMARK   45  A    between atoms: _114  and  _116
REMARK   46  A    between atoms: _116  and  _117
REMARK   47  A    between atoms: _116  and  _119
REMARK   48  A    between atoms: _119  and  _120
REMARK   49  A    between atoms: _120  and  _121
REMARK   50  A    between atoms: _121  and  _122
REMARK   51  A    between atoms: _122  and  _123
REMARK   52  A    between atoms: _127  and  _129
REMARK   53  A    between atoms: _129  and  _130
REMARK   54  A    between atoms: _129  and  _132
REMARK   55  A    between atoms: _132  and  _133
REMARK   56  A    between atoms: _133  and  _134
REMARK   57  A    between atoms: _134  and  _135
REMARK   58  A    between atoms: _135  and  _136
REMARK   59  A    between atoms: _140  and  _142
REMARK   60  A    between atoms: _142  and  _143
REMARK   61  A    between atoms: _142  and  _145
REMARK   62  A    between atoms: _145  and  _146
REMARK   63  A    between atoms: _152  and  _154
REMARK   64  A    between atoms: _154  and  _155
REMARK   65  A    between atoms: _154  and  _157
REMARK   66  A    between atoms: _157  and  _158
REMARK   67  A    between atoms: _161  and  _163
REMARK   68  A    between atoms: _163  and  _164
REMARK   69  A    between atoms: _163  and  _166
REMARK   70  A    between atoms: _166  and  _167
REMARK   71  A    between atoms: _167  and  _168
REMARK   72  A    between atoms: _173  and  _175
REMARK   73  A    between atoms: _175  and  _176
REMARK   74  A    between atoms: _175  and  _178
REMARK   75  A    between atoms: _178  and  _179
REMARK   76  A    between atoms: _179  and  _180
REMARK   77  A    between atoms: _183  and  _185
REMARK   78  A    between atoms: _185  and  _186
REMARK   79  A    between atoms: _189  and  _191
REMARK   80  A    between atoms: _191  and  _192
REMARK   81  A    between atoms: _191  and  _194
REMARK   82  A    between atoms: _194  and  _195
REMARK   83  A    between atoms: _198  and  _200
REMARK   84  A    between atoms: _200  and  _201
REMARK   85  A    between atoms: _200  and  _203
REMARK   86  A    between atoms: _203  and  _204
REMARK   87  A    between atoms: _207  and  _209
REMARK   88  A    between atoms: _209  and  _210
REMARK   89  A    between atoms: _209  and  _212
REMARK   90  A    between atoms: _212  and  _213
REMARK   91  A    between atoms: _213  and  _214
REMARK   92  A    between atoms: _216  and  _218
REMARK   93  A    between atoms: _218  and  _219
REMARK   94  A    between atoms: _218  and  _221
REMARK   95  A    between atoms: _221  and  _222
REMARK   96  A    between atoms: _222  and  _223
REMARK   97  A    between atoms: _223  and  _224
REMARK   98  A    between atoms: _233  and  _235
REMARK   99  A    between atoms: _235  and  _236
REMARK  100  A    between atoms: _235  and  _238
REMARK  101  A    between atoms: _238  and  _239
REMARK  102  A    between atoms: _239  and  _240
REMARK  103  A    between atoms: _245  and  _247
REMARK  104  A    between atoms: _247  and  _248
REMARK  105  A    between atoms: _247  and  _250
REMARK  106  A    between atoms: _250  and  _251
REMARK  107  A    between atoms: _257  and  _259
REMARK  108  A    between atoms: _259  and  _260
REMARK  109  A    between atoms: _259  and  _262
REMARK  110  A    between atoms: _262  and  _263
REMARK  111  A    between atoms: _266  and  _268
REMARK  112  A    between atoms: _268  and  _269
REMARK  113  A    between atoms: _268  and  _271
REMARK  114  A    between atoms: _271  and  _272
REMARK  115  A    between atoms: _277  and  _279
REMARK  116  A    between atoms: _279  and  _280
REMARK  117  A    between atoms: _279  and  _282
REMARK  118  A    between atoms: _282  and  _283
REMARK  119  A    between atoms: _286  and  _288
REMARK  120  A    between atoms: _288  and  _289
REMARK  121  A    between atoms: _288  and  _291
REMARK  122  A    between atoms: _294  and  _296
REMARK  123  A    between atoms: _296  and  _297
REMARK  124  A    between atoms: _296  and  _299
REMARK  125  A    between atoms: _299  and  _300
REMARK  126  A    between atoms: _300  and  _301
REMARK  127  A    between atoms: _301  and  _302
REMARK  128  A    between atoms: _302  and  _303
REMARK  129  A    between atoms: _307  and  _309
REMARK  130  A    between atoms: _309  and  _310
REMARK  131  A    between atoms: _309  and  _312
REMARK  132  A    between atoms: _312  and  _313
REMARK  133  A    between atoms: _316  and  _318
REMARK  134  A    between atoms: _318  and  _319
REMARK  135  A    between atoms: _318  and  _321
REMARK  136  A    between atoms: _321  and  _322
REMARK  137  A    between atoms: _325  and  _327
REMARK  138  A    between atoms: _327  and  _328
REMARK  139  A    between atoms: _327  and  _330
REMARK  140  A    between atoms: _330  and  _331
REMARK  141  A    between atoms: _334  and  _336
REMARK  142  A    between atoms: _336  and  _337
REMARK  143  A    between atoms: _336  and  _339
REMARK  144  A    between atoms: _339  and  _340
REMARK  145  A    between atoms: _340  and  _341
REMARK  146  A    between atoms: _343  and  _345
REMARK  147  A    between atoms: _345  and  _346
REMARK  148  A    between atoms: _345  and  _348
REMARK  149  A    between atoms: _348  and  _349
REMARK  150  A    between atoms: _349  and  _350
REMARK  151  A    between atoms: _353  and  _355
REMARK  152  A    between atoms: _355  and  _356
REMARK  153  A    between atoms: _355  and  _358
REMARK  154  A    between atoms: _358  and  _359
REMARK  155  A    between atoms: _362  and  _364
REMARK  156  A    between atoms: _364  and  _365
REMARK  157  A    between atoms: _364  and  _367
REMARK  158  A    between atoms: _369  and  _371
REMARK  159  A    between atoms: _371  and  _372
REMARK  160  A    between atoms: _371  and  _374
REMARK  161  A    between atoms: _374  and  _375
REMARK  162  A    between atoms: _378  and  _380
REMARK  163  A    between atoms: _380  and  _381
REMARK  164  A    between atoms: _380  and  _383
REMARK  165  A    between atoms: _383  and  _384
REMARK  166  A    between atoms: _387  and  _389
REMARK  167  A    between atoms: _389  and  _390
REMARK  168  A    between atoms: _392  and  _394
REMARK  169  A    between atoms: _394  and  _395
REMARK  170  A    between atoms: _394  and  _397
REMARK  171  A    between atoms: _397  and  _398
REMARK  172  A    between atoms: _398  and  _399
REMARK  173  A    between atoms: _402  and  _404
REMARK  174  A    between atoms: _404  and  _405
REMARK  175  A    between atoms: _408  and  _410
REMARK  176  A    between atoms: _410  and  _411
REMARK  177  A    between atoms: _410  and  _413
REMARK  178  A    between atoms: _413  and  _414
REMARK  179  A    between atoms: _417  and  _419
REMARK  180  A    between atoms: _419  and  _420
REMARK  181  A    between atoms: _419  and  _422
REMARK  182  A    between atoms: _422  and  _423
REMARK  183  A    between atoms: _428  and  _429
REMARK  184  A    between atoms: _431  and  _433
REMARK  185  A    between atoms: _433  and  _434
REMARK  186  A    between atoms: _433  and  _436
REMARK  187  A    between atoms: _436  and  _437
REMARK  188  A    between atoms: _440  and  _442
REMARK  189  A    between atoms: _442  and  _443
REMARK  190  A    between atoms: _442  and  _445
REMARK  191  A    between atoms: _445  and  _446
REMARK  192  A    between atoms: _452  and  _454
REMARK  193  A    between atoms: _454  and  _455
REMARK  194  A    between atoms: _454  and  _457
REMARK  195  A    between atoms: _460  and  _462
REMARK  196  A    between atoms: _462  and  _463
REMARK  197  A    between atoms: _462  and  _465
REMARK  198  A    between atoms: _465  and  _466
REMARK  199  A    between atoms: _471  and  _473
REMARK  200  A    between atoms: _473  and  _474
REMARK  201  A    between atoms: _473  and  _476
REMARK  202  A    between atoms: _476  and  _477
REMARK  203  A    between atoms: _477  and  _478
REMARK  204  A    between atoms: _478  and  _479
REMARK  205  A    between atoms: _488  and  _490
REMARK  206  A    between atoms: _490  and  _491
REMARK  207  A    between atoms: _490  and  _493
REMARK  208  A    between atoms: _493  and  _494
REMARK  209  A    between atoms: _497  and  _499
REMARK  210  A    between atoms: _499  and  _500
REMARK  211  A    between atoms: _499  and  _502
REMARK  212  A    between atoms: _502  and  _503
REMARK  213  A    between atoms: _506  and  _508
REMARK  214  A    between atoms: _508  and  _509
REMARK  215  A    between atoms: _508  and  _511
REMARK  216  A    between atoms: _511  and  _512
REMARK  217  A    between atoms: _517  and  _519
REMARK  218  A    between atoms: _519  and  _520
REMARK  219  A    between atoms: _519  and  _522
REMARK  220  A    between atoms: _525  and  _527
REMARK  221  A    between atoms: _527  and  _528
REMARK  222  A    between atoms: _527  and  _530
REMARK  223  A    between atoms: _530  and  _531
REMARK  224  A    between atoms: _534  and  _536
REMARK  225  A    between atoms: _536  and  _537
REMARK  226  A    between atoms: _536  and  _539
REMARK  227  A    between atoms: _542  and  _544
REMARK  228  A    between atoms: _544  and  _545
REMARK  229  A    between atoms: _544  and  _547
REMARK  230  A    between atoms: _547  and  _548
REMARK  231  A    between atoms: _550  and  _552
REMARK  232  A    between atoms: _552  and  _553
REMARK  233  A    between atoms: _552  and  _555
REMARK  234  A    between atoms: _555  and  _556
REMARK  235  A    between atoms: _556  and  _557
REMARK  236  A    between atoms: _557  and  _558
REMARK  237  A    between atoms: _558  and  _559
REMARK  238  A    between atoms: _563  and  _565
REMARK  239  A    between atoms: _565  and  _566
REMARK  240  A    between atoms: _565  and  _568
REMARK  241  A    between atoms: _568  and  _569
REMARK  242  A    between atoms: _572  and  _574
REMARK  243  A    between atoms: _574  and  _575
REMARK  244  A    between atoms: _577  and  _579
REMARK  245  A    between atoms: _579  and  _580
REMARK  246  A    between atoms: _579  and  _582
REMARK  247  A    between atoms: _582  and  _583
REMARK  248  A    between atoms: _586  and  _588
REMARK  249  A    between atoms: _588  and  _589
REMARK  250  A    between atoms: _588  and  _591
REMARK  251  A    between atoms: _591  and  _592
REMARK  252  A    between atoms: _598  and  _600
REMARK  253  A    between atoms: _600  and  _601
REMARK  254  A    between atoms: _603  and  _605
REMARK  255  A    between atoms: _605  and  _606
REMARK  256  A    between atoms: _605  and  _608
REMARK  257  A    between atoms: _608  and  _609
REMARK  258  A    between atoms: _612  and  _614
REMARK  259  A    between atoms: _614  and  _615
REMARK  260  A    between atoms: _614  and  _617
REMARK  261  A    between atoms: _617  and  _618
REMARK  262  A    between atoms: _620  and  _622
REMARK  263  A    between atoms: _622  and  _623
REMARK  264  A    between atoms: _622  and  _625
REMARK  265  A    between atoms: _625  and  _626
REMARK  266  A    between atoms: _626  and  _627
REMARK  267  A    between atoms: _627  and  _628
REMARK  268  A    between atoms: _637  and  _639
REMARK  269  A    between atoms: _639  and  _640
REMARK  270  A    between atoms: _639  and  _642
REMARK  271  A    between atoms: _642  and  _643
REMARK  272  A    between atoms: _648  and  _649
REMARK  273  A    between atoms: _651  and  _653
REMARK  274  A    between atoms: _653  and  _654
REMARK  275  A    between atoms: _653  and  _656
REMARK  276  A    between atoms: _656  and  _657
REMARK  277  A    between atoms: _657  and  _658
REMARK  278  A    between atoms: _660  and  _662
REMARK  279  A    between atoms: _662  and  _663
REMARK  280  A    between atoms: _662  and  _665
REMARK  281  A    between atoms: _665  and  _666
REMARK                            x       y       z     vdW  Elec       q    Type
REMARK                         _______ _______ _______ _____ _____    ______ ____
ROOT
ATOM      1  CB  PHE A   1     -33.286 -19.997   1.166  0.00  0.00    +0.051 C 
ENDROOT
BRANCH   1   2
ATOM      2  CG  PHE A   1     -32.171 -19.022   0.821  0.00  0.00    -0.020 A 
ATOM      3  CD2 PHE A   1     -30.923 -19.124   1.426  0.00  0.00    -0.004 A 
ATOM      4  CE2 PHE A   1     -29.902 -18.227   1.113  0.00  0.00    -0.000 A 
ATOM      5  CZ  PHE A   1     -30.119 -17.234   0.181  0.00  0.00    -0.000 A 
ATOM      6  CE1 PHE A   1     -31.342 -17.133  -0.445  0.00  0.00    -0.000 A 
ATOM      7  CD1 PHE A   1     -32.360 -18.038  -0.140  0.00  0.00    -0.004 A 
ENDBRANCH   1   2
BRANCH   1   8
ATOM      8  CA  PHE A   1     -34.012 -19.581   2.447  0.00  0.00    +0.137 C 
BRANCH   8   9
ATOM      9  N   PHE A   1     -33.094 -19.685   3.582  0.00  0.00    -0.239 NA
ATOM     10  H   PHE A   1     -32.567 -20.572   3.714  0.00  0.00    +0.142 HD
ENDBRANCH   8   9
BRANCH   8  11
ATOM     11  C   PHE A   1     -35.333 -20.339   2.612  0.00  0.00    +0.224 C 
ATOM     12  O   PHE A   1     -36.273 -20.128   1.844  0.00  0.00    -0.287 OA
ENDBRANCH   8  11
ENDBRANCH   1   8
TORSDOF 4
REMARK  Name = ../refined-set-2016/4k9y/4k9y_pocket.pdb
REMARK  281 active torsions:
REMARK  status: ('A' for Active; 'I' for Inactive)
REMARK    1  A    between atoms: _1  and  _3
REMARK    2  A    between atoms: _3  and  _4
REMARK    3  A    between atoms: _3  and  _6
REMARK    4  A    between atoms: _6  and  _7
REMARK    5  A    between atoms: _7  and  _8
REMARK    6  A    between atoms: _8  and  _9
REMARK    7  A    between atoms: _18  and  _20
REMARK    8  A    between atoms: _20  and  _21
REMARK    9  A    between atoms: _20  and  _23
REMARK   10  A    between atoms: _23  and  _24
REMARK   11  A    between atoms: _27  and  _29
REMARK   12  A    between atoms: _29  and  _30
REMARK   13  A    between atoms: _32  and  _34
REMARK   14  A    between atoms: _34  and  _35
REMARK   15  A    between atoms: _34  and  _37
REMARK   16  A    between atoms: _37  and  _38
REMARK   17  A    between atoms: _38  and  _39
REMARK   18  A    between atoms: _42  and  _44
REMARK   19  A    between atoms: _44  and  _45
REMARK   20  A    between atoms: _44  and  _47
REMARK   21  A    between atoms: _47  and  _48
REMARK   22  A    between atoms: _54  and  _56
REMARK   23  A    between atoms: _56  and  _57
REMARK   24  A    between atoms: _56  and  _59
REMARK   25  A    between atoms: _62  and  _64
REMARK   26  A    between atoms: _64  and  _65
REMARK   27  A    between atoms: _64  and  _67
REMARK   28  A    between atoms: _67  and  _68
REMARK   29  A    between atoms: _73  and  _75
REMARK   30  A    between atoms: _75  and  _76
REMARK   31  A    between atoms: _75  and  _78
REMARK   32  A    between atoms: _78  and  _79
REMARK   33  A    between atoms: _79  and  _80
REMARK   34  A    between atoms: _85  and  _87
REMARK   35  A    between atoms: _87  and  _88
REMARK   36  A    between atoms: _91  and  _93
REMARK   37  A    between atoms: _93  and  _94
REMARK   38  A    between atoms: _93  and  _96
REMARK   39  A    between atoms: _99  and  _101
REMARK   40  A    between atoms: _101  and  _102
REMARK   41  A    between atoms: _105  and  _107
REMARK   42  A    between atoms: _107  and  _108
REMARK   43  A    between atoms: _107  and  _110
REMARK   44  A    between atoms: _110  and  _111
REMARK   45  A    between atoms: _114  and  _116
REMARK   46  A    between atoms: _116  and  _117
REMARK   47  A    between atoms: _116  and  _119
REMARK   48  A    between atoms: _119  and  _120
REMARK   49  A    between atoms: _120  and  _121
REMARK   50  A    between atoms: _121  and  _122
REMARK   51  A    between atoms: _122  and  _123
REMARK   52  A    between atoms: _127  and  _129
REMARK   53  A    between atoms: _129  and  _130
REMARK   54  A    between atoms: _129  and  _132
REMARK   55  A    between atoms: _132  and  _133
REMARK   56  A    between atoms: _133  and  _134
REMARK   57  A    between atoms: _134  and  _135
REMARK   58  A    between atoms: _135  and  _136
REMARK   59  A    between atoms: _140  and  _142
REMARK   60  A    between atoms: _142  and  _143
REMARK   61  A    between atoms: _142  and  _145
REMARK   62  A    between atoms: _145  and  _146
REMARK   63  A    between atoms: _152  and  _154
REMARK   64  A    between atoms: _154  and  _155
REMARK   65  A    between atoms: _154  and  _157
REMARK   66  A    between atoms: _157  and  _158
REMARK   67  A    between atoms: _161  and  _163
REMARK   68  A    between atoms: _163  and  _164
REMARK   69  A    between atoms: _163  and  _166
REMARK   70  A    between atoms: _166  and  _167
REMARK   71  A    between atoms: _167  and  _168
REMARK   72  A    between atoms: _173  and  _175
REMARK   73  A    between atoms: _175  and  _176
REMARK   74  A    between atoms: _175  and  _178
REMARK   75  A    between atoms: _178  and  _179
REMARK   76  A    between atoms: _179  and  _180
REMARK   77  A    between atoms: _183  and  _185
REMARK   78  A    between atoms: _185  and  _186
REMARK   79  A    between atoms: _189  and  _191
REMARK   80  A    between atoms: _191  and  _192
REMARK   81  A    between atoms: _191  and  _194
REMARK   82  A    between atoms: _194  and  _195
REMARK   83  A    between atoms: _198  and  _200
REMARK   84  A    between atoms: _200  and  _201
REMARK   85  A    between atoms: _200  and  _203
REMARK   86  A    between atoms: _203  and  _204
REMARK   87  A    between atoms: _207  and  _209
REMARK   88  A    between atoms: _209  and  _210
REMARK   89  A    between atoms: _209  and  _212
REMARK   90  A    between atoms: _212  and  _213
REMARK   91  A    between atoms: _213  and  _214
REMARK   92  A    between atoms: _216  and  _218
REMARK   93  A    between atoms: _218  and  _219
REMARK   94  A    between atoms: _218  and  _221
REMARK   95  A    between atoms: _221  and  _222
REMARK   96  A    between atoms: _222  and  _223
REMARK   97  A    between atoms: _223  and  _224
REMARK   98  A    between atoms: _233  and  _235
REMARK   99  A    between atoms: _235  and  _236
REMARK  100  A    between atoms: _235  and  _238
REMARK  101  A    between atoms: _238  and  _239
REMARK  102  A    between atoms: _239  and  _240
REMARK  103  A    between atoms: _245  and  _247
REMARK  104  A    between atoms: _247  and  _248
REMARK  105  A    between atoms: _247  and  _250
REMARK  106  A    between atoms: _250  and  _251
REMARK  107  A    between atoms: _257  and  _259
REMARK  108  A    between atoms: _259  and  _260
REMARK  109  A    between atoms: _259  and  _262
REMARK  110  A    between atoms: _262  and  _263
REMARK  111  A    between atoms: _266  and  _268
REMARK  112  A    between atoms: _268  and  _269
REMARK  113  A    between atoms: _268  and  _271
REMARK  114  A    between atoms: _271  and  _272
REMARK  115  A    between atoms: _277  and  _279
REMARK  116  A    between atoms: _279  and  _280
REMARK  117  A    between atoms: _279  and  _282
REMARK  118  A    between atoms: _282  and  _283
REMARK  119  A    between atoms: _286  and  _288
REMARK  120  A    between atoms: _288  and  _289
REMARK  121  A    between atoms: _288  and  _291
REMARK  122  A    between atoms: _294  and  _296
REMARK  123  A    between atoms: _296  and  _297
REMARK  124  A    between atoms: _296  and  _299
REMARK  125  A    between atoms: _299  and  _300
REMARK  126  A    between atoms: _300  and  _301
REMARK  127  A    between atoms: _301  and  _302
REMARK  128  A    between atoms: _302  and  _303
REMARK  129  A    between atoms: _307  and  _309
REMARK  130  A    between atoms: _309  and  _310
REMARK  131  A    between atoms: _309  and  _312
REMARK  132  A    between atoms: _312  and  _313
REMARK  133  A    between atoms: _316  and  _318
REMARK  134  A    between atoms: _318  and  _319
REMARK  135  A    between atoms: _318  and  _321
REMARK  136  A    between atoms: _321  and  _322
REMARK  137  A    between atoms: _325  and  _327
REMARK  138  A    between atoms: _327  and  _328
REMARK  139  A    between atoms: _327  and  _330
REMARK  140  A    between atoms: _330  and  _331
REMARK  141  A    between atoms: _334  and  _336
REMARK  142  A    between atoms: _336  and  _337
REMARK  143  A    between atoms: _336  and  _339
REMARK  144  A    between atoms: _339  and  _340
REMARK  145  A    between atoms: _340  and  _341
REMARK  146  A    between atoms: _343  and  _345
REMARK  147  A    between atoms: _345  and  _346
REMARK  148  A    between atoms: _345  and  _348
REMARK  149  A    between atoms: _348  and  _349
REMARK  150  A    between atoms: _349  and  _350
REMARK  151  A    between atoms: _353  and  _355
REMARK  152  A    between atoms: _355  and  _356
REMARK  153  A    between atoms: _355  and  _358
REMARK  154  A    between atoms: _358  and  _359
REMARK  155  A    between atoms: _362  and  _364
REMARK  156  A    between atoms: _364  and  _365
REMARK  157  A    between atoms: _364  and  _367
REMARK  158  A    between atoms: _369  and  _371
REMARK  159  A    between atoms: _371  and  _372
REMARK  160  A    between atoms: _371  and  _374
REMARK  161  A    between atoms: _374  and  _375
REMARK  162  A    between atoms: _378  and  _380
REMARK  163  A    between atoms: _380  and  _381
REMARK  164  A    between atoms: _380  and  _383
REMARK  165  A    between atoms: _383  and  _384
REMARK  166  A    between atoms: _387  and  _389
REMARK  167  A    between atoms: _389  and  _390
REMARK  168  A    between atoms: _392  and  _394
REMARK  169  A    between atoms: _394  and  _395
REMARK  170  A    between atoms: _394  and  _397
REMARK  171  A    between atoms: _397  and  _398
REMARK  172  A    between atoms: _398  and  _399
REMARK  173  A    between atoms: _402  and  _404
REMARK  174  A    between atoms: _404  and  _405
REMARK  175  A    between atoms: _408  and  _410
REMARK  176  A    between atoms: _410  and  _411
REMARK  177  A    between atoms: _410  and  _413
REMARK  178  A    between atoms: _413  and  _414
REMARK  179  A    between atoms: _417  and  _419
REMARK  180  A    between atoms: _419  and  _420
REMARK  181  A    between atoms: _419  and  _422
REMARK  182  A    between atoms: _422  and  _423
REMARK  183  A    between atoms: _428  and  _429
REMARK  184  A    between atoms: _431  and  _433
REMARK  185  A    between atoms: _433  and  _434
REMARK  186  A    between atoms: _433  and  _436
REMARK  187  A    between atoms: _436  and  _437
REMARK  188  A    between atoms: _440  and  _442
REMARK  189  A    between atoms: _442  and  _443
REMARK  190  A    between atoms: _442  and  _445
REMARK  191  A    between atoms: _445  and  _446
REMARK  192  A    between atoms: _452  and  _454
REMARK  193  A    between atoms: _454  and  _455
REMARK  194  A    between atoms: _454  and  _457
REMARK  195  A    between atoms: _460  and  _462
REMARK  196  A    between atoms: _462  and  _463
REMARK  197  A    between atoms: _462  and  _465
REMARK  198  A    between atoms: _465  and  _466
REMARK  199  A    between atoms: _471  and  _473
REMARK  200  A    between atoms: _473  and  _474
REMARK  201  A    between atoms: _473  and  _476
REMARK  202  A    between atoms: _476  and  _477
REMARK  203  A    between atoms: _477  and  _478
REMARK  204  A    between atoms: _478  and  _479
REMARK  205  A    between atoms: _488  and  _490
REMARK  206  A    between atoms: _490  and  _491
REMARK  207  A    between atoms: _490  and  _493
REMARK  208  A    between atoms: _493  and  _494
REMARK  209  A    between atoms: _497  and  _499
REMARK  210  A    between atoms: _499  and  _500
REMARK  211  A    between atoms: _499  and  _502
REMARK  212  A    between atoms: _502  and  _503
REMARK  213  A    between atoms: _506  and  _508
REMARK  214  A    between atoms: _508  and  _509
REMARK  215  A    between atoms: _508  and  _511
REMARK  216  A    between atoms: _511  and  _512
REMARK  217  A    between atoms: _517  and  _519
REMARK  218  A    between atoms: _519  and  _520
REMARK  219  A    between atoms: _519  and  _522
REMARK  220  A    between atoms: _525  and  _527
REMARK  221  A    between atoms: _527  and  _528
REMARK  222  A    between atoms: _527  and  _530
REMARK  223  A    between atoms: _530  and  _531
REMARK  224  A    between atoms: _534  and  _536
REMARK  225  A    between atoms: _536  and  _537
REMARK  226  A    between atoms: _536  and  _539
REMARK  227  A    between atoms: _542  and  _544
REMARK  228  A    between atoms: _544  and  _545
REMARK  229  A    between atoms: _544  and  _547
REMARK  230  A    between atoms: _547  and  _548
REMARK  231  A    between atoms: _550  and  _552
REMARK  232  A    between atoms: _552  and  _553
REMARK  233  A    between atoms: _552  and  _555
REMARK  234  A    between atoms: _555  and  _556
REMARK  235  A    between atoms: _556  and  _557
REMARK  236  A    between atoms: _557  and  _558
REMARK  237  A    between atoms: _558  and  _559
REMARK  238  A    between atoms: _563  and  _565
REMARK  239  A    between atoms: _565  and  _566
REMARK  240  A    between atoms: _565  and  _568
REMARK  241  A    between atoms: _568  and  _569
REMARK  242  A    between atoms: _572  and  _574
REMARK  243  A    between atoms: _574  and  _575
REMARK  244  A    between atoms: _577  and  _579
REMARK  245  A    between atoms: _579  and  _580
REMARK  246  A    between atoms: _579  and  _582
REMARK  247  A    between atoms: _582  and  _583
REMARK  248  A    between atoms: _586  and  _588
REMARK  249  A    between atoms: _588  and  _589
REMARK  250  A    between atoms: _588  and  _591
REMARK  251  A    between atoms: _591  and  _592
REMARK  252  A    between atoms: _598  and  _600
REMARK  253  A    between atoms: _600  and  _601
REMARK  254  A    between atoms: _603  and  _605
REMARK  255  A    between atoms: _605  and  _606
REMARK  256  A    between atoms: _605  and  _608
REMARK  257  A    between atoms: _608  and  _609
REMARK  258  A    between atoms: _612  and  _614
REMARK  259  A    between atoms: _614  and  _615
REMARK  260  A    between atoms: _614  and  _617
REMARK  261  A    between atoms: _617  and  _618
REMARK  262  A    between atoms: _620  and  _622
REMARK  263  A    between atoms: _622  and  _623
REMARK  264  A    between atoms: _622  and  _625
REMARK  265  A    between atoms: _625  and  _626
REMARK  266  A    between atoms: _626  and  _627
REMARK  267  A    between atoms: _627  and  _628
REMARK  268  A    between atoms: _637  and  _639
REMARK  269  A    between atoms: _639  and  _640
REMARK  270  A    between atoms: _639  and  _642
REMARK  271  A    between atoms: _642  and  _643
REMARK  272  A    between atoms: _648  and  _649
REMARK  273  A    between atoms: _651  and  _653
REMARK  274  A    between atoms: _653  and  _654
REMARK  275  A    between atoms: _653  and  _656
REMARK  276  A    between atoms: _656  and  _657
REMARK  277  A    between atoms: _657  and  _658
REMARK  278  A    between atoms: _660  and  _662
REMARK  279  A    between atoms: _662  and  _663
REMARK  280  A    between atoms: _662  and  _665
REMARK  281  A    between atoms: _665  and  _666
REMARK                            x       y       z     vdW  Elec       q    Type
REMARK                         _______ _______ _______ _____ _____    ______ ____
ROOT
ATOM      1  CA  HIS A   2     -36.235 -31.444   5.686  0.00  0.00    +0.155 C 
ENDROOT
BRANCH   1   4
ATOM      2  C   VAL A   1     -35.341 -29.229   6.220  0.00  0.00    +0.238 C 
ATOM      3  O   VAL A   1     -35.749 -29.262   7.393  0.00  0.00    -0.274 OA
ATOM      4  N   HIS A   2     -35.547 -30.204   5.337  0.00  0.00    -0.297 N 
ATOM      5  H   HIS A   2     -35.205 -30.078   4.363  0.00  0.00    +0.150 HD
BRANCH   2   6
ATOM      6  CA  VAL A   1     -34.591 -27.990   5.711  0.00  0.00    +0.145 C 
BRANCH   6   7
ATOM      7  CB  VAL A   1     -33.182 -27.882   6.329  0.00  0.00    +0.025 C 
ATOM      8  CG2 VAL A   1     -32.521 -26.526   5.978  0.00  0.00    +0.002 C 
ATOM      9  CG1 VAL A   1     -32.298 -29.061   5.882  0.00  0.00    +0.002 C 
ENDBRANCH   6   7
BRANCH   6  10
ATOM     10  N   VAL A   1     -35.448 -26.881   6.078  0.00  0.00    -0.238 NA
ATOM     11  H   VAL A   1     -35.499 -26.636   7.087  0.00  0.00    +0.142 HD
ENDBRANCH   6  10
ENDBRANCH   2   6
ENDBRANCH   1   4
BRANCH   1  12
ATOM     12  C   HIS A   2     -35.325 -32.633   5.469  0.00  0.00    +0.241 C 
ATOM     13  N   GLN A   3     -35.692 -33.774   6.029  0.00  0.00    -0.298 N 
ATOM     14  H   GLN A   3     -36.464 -33.781   6.726  0.00  0.00    +0.150 HD
ATOM     15  O   HIS A   2     -34.314 -32.524   4.777  0.00  0.00    -0.273 OA
BRANCH  13  16
ATOM     16  CA  GLN A   3     -35.028 -35.014   5.680  0.00  0.00    +0.137 C 
BRANCH  16  17
ATOM     17  C   GLN A   3     -36.021 -35.681   4.685  0.00  0.00    +0.227 C 
ATOM     18  O   GLN A   3     -37.198 -35.303   4.610  0.00  0.00    -0.286 OA
ENDBRANCH  16  17
BRANCH  16  19
ATOM     19  CB  GLN A   3     -34.756 -35.917   6.908  0.00  0.00    +0.037 C 
BRANCH  19  20
ATOM     20  CG  GLN A   3     -36.008 -36.430   7.630  0.00  0.00    +0.087 C 
BRANCH  20  21
ATOM     21  CD  GLN A   3     -35.597 -37.309   8.781  0.00  0.00    +0.219 C 
ATOM     22  OE1 GLN A   3     -35.515 -36.869   9.926  0.00  0.00    -0.275 OA
ATOM     23  NE2 GLN A   3     -35.274 -38.562   8.490  0.00  0.00    -0.329 N 
ATOM     24 HE21 GLN A   3     -34.941 -39.201   9.240  0.00  0.00    +0.145 HD
ATOM     25 HE22 GLN A   3     -35.354 -38.906   7.512  0.00  0.00    +0.145 HD
ENDBRANCH  20  21
ENDBRANCH  19  20
ENDBRANCH  16  19
ENDBRANCH  13  16
ENDBRANCH   1  12
BRANCH   1  26
ATOM     26  CB  HIS A   2     -37.451 -31.646   4.755  0.00  0.00    +0.076 C 
BRANCH  26  27
ATOM     27  CG  HIS A   2     -38.552 -30.655   4.944  0.00  0.00    +0.082 A 
ATOM     28  ND1 HIS A   2     -39.803 -31.049   5.404  0.00  0.00    -0.227 NA
ATOM     29  CE1 HIS A   2     -40.533 -29.943   5.451  0.00  0.00    +0.199 A 
ATOM     30  NE2 HIS A   2     -39.833 -28.880   5.044  0.00  0.00    -0.221 NA
ATOM     31  CD2 HIS A   2     -38.573 -29.323   4.701  0.00  0.00    +0.115 A 
ENDBRANCH  26  27
ENDBRANCH   1  26
TORSDOF 12
REMARK  Name = ../refined-set-2016/4k9y/4k9y_pocket.pdb
REMARK  281 active torsions:
REMARK  status: ('A' for Active; 'I' for Inactive)
REMARK    1  A    between atoms: _1  and  _3
REMARK    2  A    between atoms: _3  and  _4
REMARK    3  A    between atoms: _3  and  _6
REMARK    4  A    between atoms: _6  and  _7
REMARK    5  A    between atoms: _7  and  _8
REMARK    6  A    between atoms: _8  and  _9
REMARK    7  A    between atoms: _18  and  _20
REMARK    8  A    between atoms: _20  and  _21
REMARK    9  A    between atoms: _20  and  _23
REMARK   10  A    between atoms: _23  and  _24
REMARK   11  A    between atoms: _27  and  _29
REMARK   12  A    between atoms: _29  and  _30
REMARK   13  A    between atoms: _32  and  _34
REMARK   14  A    between atoms: _34  and  _35
REMARK   15  A    between atoms: _34  and  _37
REMARK   16  A    between atoms: _37  and  _38
REMARK   17  A    between atoms: _38  and  _39
REMARK   18  A    between atoms: _42  and  _44
REMARK   19  A    between atoms: _44  and  _45
REMARK   20  A    between atoms: _44  and  _47
REMARK   21  A    between atoms: _47  and  _48
REMARK   22  A    between atoms: _54  and  _56
REMARK   23  A    between atoms: _56  and  _57
REMARK   24  A    between atoms: _56  and  _59
REMARK   25  A    between atoms: _62  and  _64
REMARK   26  A    between atoms: _64  and  _65
REMARK   27  A    between atoms: _64  and  _67
REMARK   28  A    between atoms: _67  and  _68
REMARK   29  A    between atoms: _73  and  _75
REMARK   30  A    between atoms: _75  and  _76
REMARK   31  A    between atoms: _75  and  _78
REMARK   32  A    between atoms: _78  and  _79
REMARK   33  A    between atoms: _79  and  _80
REMARK   34  A    between atoms: _85  and  _87
REMARK   35  A    between atoms: _87  and  _88
REMARK   36  A    between atoms: _91  and  _93
REMARK   37  A    between atoms: _93  and  _94
REMARK   38  A    between atoms: _93  and  _96
REMARK   39  A    between atoms: _99  and  _101
REMARK   40  A    between atoms: _101  and  _102
REMARK   41  A    between atoms: _105  and  _107
REMARK   42  A    between atoms: _107  and  _108
REMARK   43  A    between atoms: _107  and  _110
REMARK   44  A    between atoms: _110  and  _111
REMARK   45  A    between atoms: _114  and  _116
REMARK   46  A    between atoms: _116  and  _117
REMARK   47  A    between atoms: _116  and  _119
REMARK   48  A    between atoms: _119  and  _120
REMARK   49  A    between atoms: _120  and  _121
REMARK   50  A    between atoms: _121  and  _122
REMARK   51  A    between atoms: _122  and  _123
REMARK   52  A    between atoms: _127  and  _129
REMARK   53  A    between atoms: _129  and  _130
REMARK   54  A    between atoms: _129  and  _132
REMARK   55  A    between atoms: _132  and  _133
REMARK   56  A    between atoms: _133  and  _134
REMARK   57  A    between atoms: _134  and  _135
REMARK   58  A    between atoms: _135  and  _136
REMARK   59  A    between atoms: _140  and  _142
REMARK   60  A    between atoms: _142  and  _143
REMARK   61  A    between atoms: _142  and  _145
REMARK   62  A    between atoms: _145  and  _146
REMARK   63  A    between atoms: _152  and  _154
REMARK   64  A    between atoms: _154  and  _155
REMARK   65  A    between atoms: _154  and  _157
REMARK   66  A    between atoms: _157  and  _158
REMARK   67  A    between atoms: _161  and  _163
REMARK   68  A    between atoms: _163  and  _164
REMARK   69  A    between atoms: _163  and  _166
REMARK   70  A    between atoms: _166  and  _167
REMARK   71  A    between atoms: _167  and  _168
REMARK   72  A    between atoms: _173  and  _175
REMARK   73  A    between atoms: _175  and  _176
REMARK   74  A    between atoms: _175  and  _178
REMARK   75  A    between atoms: _178  and  _179
REMARK   76  A    between atoms: _179  and  _180
REMARK   77  A    between atoms: _183  and  _185
REMARK   78  A    between atoms: _185  and  _186
REMARK   79  A    between atoms: _189  and  _191
REMARK   80  A    between atoms: _191  and  _192
REMARK   81  A    between atoms: _191  and  _194
REMARK   82  A    between atoms: _194  and  _195
REMARK   83  A    between atoms: _198  and  _200
REMARK   84  A    between atoms: _200  and  _201
REMARK   85  A    between atoms: _200  and  _203
REMARK   86  A    between atoms: _203  and  _204
REMARK   87  A    between atoms: _207  and  _209
REMARK   88  A    between atoms: _209  and  _210
REMARK   89  A    between atoms: _209  and  _212
REMARK   90  A    between atoms: _212  and  _213
REMARK   91  A    between atoms: _213  and  _214
REMARK   92  A    between atoms: _216  and  _218
REMARK   93  A    between atoms: _218  and  _219
REMARK   94  A    between atoms: _218  and  _221
REMARK   95  A    between atoms: _221  and  _222
REMARK   96  A    between atoms: _222  and  _223
REMARK   97  A    between atoms: _223  and  _224
REMARK   98  A    between atoms: _233  and  _235
REMARK   99  A    between atoms: _235  and  _236
REMARK  100  A    between atoms: _235  and  _238
REMARK  101  A    between atoms: _238  and  _239
REMARK  102  A    between atoms: _239  and  _240
REMARK  103  A    between atoms: _245  and  _247
REMARK  104  A    between atoms: _247  and  _248
REMARK  105  A    between atoms: _247  and  _250
REMARK  106  A    between atoms: _250  and  _251
REMARK  107  A    between atoms: _257  and  _259
REMARK  108  A    between atoms: _259  and  _260
REMARK  109  A    between atoms: _259  and  _262
REMARK  110  A    between atoms: _262  and  _263
REMARK  111  A    between atoms: _266  and  _268
REMARK  112  A    between atoms: _268  and  _269
REMARK  113  A    between atoms: _268  and  _271
REMARK  114  A    between atoms: _271  and  _272
REMARK  115  A    between atoms: _277  and  _279
REMARK  116  A    between atoms: _279  and  _280
REMARK  117  A    between atoms: _279  and  _282
REMARK  118  A    between atoms: _282  and  _283
REMARK  119  A    between atoms: _286  and  _288
REMARK  120  A    between atoms: _288  and  _289
REMARK  121  A    between atoms: _288  and  _291
REMARK  122  A    between atoms: _294  and  _296
REMARK  123  A    between atoms: _296  and  _297
REMARK  124  A    between atoms: _296  and  _299
REMARK  125  A    between atoms: _299  and  _300
REMARK  126  A    between atoms: _300  and  _301
REMARK  127  A    between atoms: _301  and  _302
REMARK  128  A    between atoms: _302  and  _303
REMARK  129  A    between atoms: _307  and  _309
REMARK  130  A    between atoms: _309  and  _310
REMARK  131  A    between atoms: _309  and  _312
REMARK  132  A    between atoms: _312  and  _313
REMARK  133  A    between atoms: _316  and  _318
REMARK  134  A    between atoms: _318  and  _319
REMARK  135  A    between atoms: _318  and  _321
REMARK  136  A    between atoms: _321  and  _322
REMARK  137  A    between atoms: _325  and  _327
REMARK  138  A    between atoms: _327  and  _328
REMARK  139  A    between atoms: _327  and  _330
REMARK  140  A    between atoms: _330  and  _331
REMARK  141  A    between atoms: _334  and  _336
REMARK  142  A    between atoms: _336  and  _337
REMARK  143  A    between atoms: _336  and  _339
REMARK  144  A    between atoms: _339  and  _340
REMARK  145  A    between atoms: _340  and  _341
REMARK  146  A    between atoms: _343  and  _345
REMARK  147  A    between atoms: _345  and  _346
REMARK  148  A    between atoms: _345  and  _348
REMARK  149  A    between atoms: _348  and  _349
REMARK  150  A    between atoms: _349  and  _350
REMARK  151  A    between atoms: _353  and  _355
REMARK  152  A    between atoms: _355  and  _356
REMARK  153  A    between atoms: _355  and  _358
REMARK  154  A    between atoms: _358  and  _359
REMARK  155  A    between atoms: _362  and  _364
REMARK  156  A    between atoms: _364  and  _365
REMARK  157  A    between atoms: _364  and  _367
REMARK  158  A    between atoms: _369  and  _371
REMARK  159  A    between atoms: _371  and  _372
REMARK  160  A    between atoms: _371  and  _374
REMARK  161  A    between atoms: _374  and  _375
REMARK  162  A    between atoms: _378  and  _380
REMARK  163  A    between atoms: _380  and  _381
REMARK  164  A    between atoms: _380  and  _383
REMARK  165  A    between atoms: _383  and  _384
REMARK  166  A    between atoms: _387  and  _389
REMARK  167  A    between atoms: _389  and  _390
REMARK  168  A    between atoms: _392  and  _394
REMARK  169  A    between atoms: _394  and  _395
REMARK  170  A    between atoms: _394  and  _397
REMARK  171  A    between atoms: _397  and  _398
REMARK  172  A    between atoms: _398  and  _399
REMARK  173  A    between atoms: _402  and  _404
REMARK  174  A    between atoms: _404  and  _405
REMARK  175  A    between atoms: _408  and  _410
REMARK  176  A    between atoms: _410  and  _411
REMARK  177  A    between atoms: _410  and  _413
REMARK  178  A    between atoms: _413  and  _414
REMARK  179  A    between atoms: _417  and  _419
REMARK  180  A    between atoms: _419  and  _420
REMARK  181  A    between atoms: _419  and  _422
REMARK  182  A    between atoms: _422  and  _423
REMARK  183  A    between atoms: _428  and  _429
REMARK  184  A    between atoms: _431  and  _433
REMARK  185  A    between atoms: _433  and  _434
REMARK  186  A    between atoms: _433  and  _436
REMARK  187  A    between atoms: _436  and  _437
REMARK  188  A    between atoms: _440  and  _442
REMARK  189  A    between atoms: _442  and  _443
REMARK  190  A    between atoms: _442  and  _445
REMARK  191  A    between atoms: _445  and  _446
REMARK  192  A    between atoms: _452  and  _454
REMARK  193  A    between atoms: _454  and  _455
REMARK  194  A    between atoms: _454  and  _457
REMARK  195  A    between atoms: _460  and  _462
REMARK  196  A    between atoms: _462  and  _463
REMARK  197  A    between atoms: _462  and  _465
REMARK  198  A    between atoms: _465  and  _466
REMARK  199  A    between atoms: _471  and  _473
REMARK  200  A    between atoms: _473  and  _474
REMARK  201  A    between atoms: _473  and  _476
REMARK  202  A    between atoms: _476  and  _477
REMARK  203  A    between atoms: _477  and  _478
REMARK  204  A    between atoms: _478  and  _479
REMARK  205  A    between atoms: _488  and  _490
REMARK  206  A    between atoms: _490  and  _491
REMARK  207  A    between atoms: _490  and  _493
REMARK  208  A    between atoms: _493  and  _494
REMARK  209  A    between atoms: _497  and  _499
REMARK  210  A    between atoms: _499  and  _500
REMARK  211  A    between atoms: _499  and  _502
REMARK  212  A    between atoms: _502  and  _503
REMARK  213  A    between atoms: _506  and  _508
REMARK  214  A    between atoms: _508  and  _509
REMARK  215  A    between atoms: _508  and  _511
REMARK  216  A    between atoms: _511  and  _512
REMARK  217  A    between atoms: _517  and  _519
REMARK  218  A    between atoms: _519  and  _520
REMARK  219  A    between atoms: _519  and  _522
REMARK  220  A    between atoms: _525  and  _527
REMARK  221  A    between atoms: _527  and  _528
REMARK  222  A    between atoms: _527  and  _530
REMARK  223  A    between atoms: _530  and  _531
REMARK  224  A    between atoms: _534  and  _536
REMARK  225  A    between atoms: _536  and  _537
REMARK  226  A    between atoms: _536  and  _539
REMARK  227  A    between atoms: _542  and  _544
REMARK  228  A    between atoms: _544  and  _545
REMARK  229  A    between atoms: _544  and  _547
REMARK  230  A    between atoms: _547  and  _548
REMARK  231  A    between atoms: _550  and  _552
REMARK  232  A    between atoms: _552  and  _553
REMARK  233  A    between atoms: _552  and  _555
REMARK  234  A    between atoms: _555  and  _556
REMARK  235  A    between atoms: _556  and  _557
REMARK  236  A    between atoms: _557  and  _558
REMARK  237  A    between atoms: _558  and  _559
REMARK  238  A    between atoms: _563  and  _565
REMARK  239  A    between atoms: _565  and  _566
REMARK  240  A    between atoms: _565  and  _568
REMARK  241  A    between atoms: _568  and  _569
REMARK  242  A    between atoms: _572  and  _574
REMARK  243  A    between atoms: _574  and  _575
REMARK  244  A    between atoms: _577  and  _579
REMARK  245  A    between atoms: _579  and  _580
REMARK  246  A    between atoms: _579  and  _582
REMARK  247  A    between atoms: _582  and  _583
REMARK  248  A    between atoms: _586  and  _588
REMARK  249  A    between atoms: _588  and  _589
REMARK  250  A    between atoms: _588  and  _591
REMARK  251  A    between atoms: _591  and  _592
REMARK  252  A    between atoms: _598  and  _600
REMARK  253  A    between atoms: _600  and  _601
REMARK  254  A    between atoms: _603  and  _605
REMARK  255  A    between atoms: _605  and  _606
REMARK  256  A    between atoms: _605  and  _608
REMARK  257  A    between atoms: _608  and  _609
REMARK  258  A    between atoms: _612  and  _614
REMARK  259  A    between atoms: _614  and  _615
REMARK  260  A    between atoms: _614  and  _617
REMARK  261  A    between atoms: _617  and  _618
REMARK  262  A    between atoms: _620  and  _622
REMARK  263  A    between atoms: _622  and  _623
REMARK  264  A    between atoms: _622  and  _625
REMARK  265  A    between atoms: _625  and  _626
REMARK  266  A    between atoms: _626  and  _627
REMARK  267  A    between atoms: _627  and  _628
REMARK  268  A    between atoms: _637  and  _639
REMARK  269  A    between atoms: _639  and  _640
REMARK  270  A    between atoms: _639  and  _642
REMARK  271  A    between atoms: _642  and  _643
REMARK  272  A    between atoms: _648  and  _649
REMARK  273  A    between atoms: _651  and  _653
REMARK  274  A    between atoms: _653  and  _654
REMARK  275  A    between atoms: _653  and  _656
REMARK  276  A    between atoms: _656  and  _657
REMARK  277  A    between atoms: _657  and  _658
REMARK  278  A    between atoms: _660  and  _662
REMARK  279  A    between atoms: _662  and  _663
REMARK  280  A    between atoms: _662  and  _665
REMARK  281  A    between atoms: _665  and  _666
REMARK                            x       y       z     vdW  Elec       q    Type
REMARK                         _______ _______ _______ _____ _____    ______ ____
ROOT
ATOM      1  C   ALA A   3     -31.831 -32.791   2.358  0.00  0.00    +0.241 C 
ATOM      2  N   ILE A   4     -32.930 -32.080   2.505  0.00  0.00    -0.297 N 
ATOM      3  H   ILE A   4     -33.410 -32.091   3.427  0.00  0.00    +0.150 HD
ATOM      4  O   ALA A   3     -31.159 -32.768   1.316  0.00  0.00    -0.273 OA
ENDROOT
BRANCH   1   5
ATOM      5  CA  ALA A   3     -31.408 -33.649   3.543  0.00  0.00    +0.149 C 
ATOM      6  CB  ALA A   3     -30.196 -33.019   4.227  0.00  0.00    +0.031 C 
BRANCH   5   9
ATOM      7  C   VAL A   2     -31.787 -36.005   2.893  0.00  0.00    +0.241 C 
ATOM      8  O   VAL A   2     -32.808 -36.129   3.569  0.00  0.00    -0.273 OA
ATOM      9  N   ALA A   3     -31.040 -34.905   2.898  0.00  0.00    -0.297 N 
ATOM     10  H   ALA A   3     -30.125 -34.943   2.405  0.00  0.00    +0.150 HD
BRANCH   7  11
ATOM     11  CA  VAL A   2     -31.315 -37.131   1.960  0.00  0.00    +0.148 C 
BRANCH  11  13
ATOM     12  C   ALA A   1     -31.054 -39.534   2.469  0.00  0.00    +0.238 C 
ATOM     13  N   VAL A   2     -31.822 -38.455   2.364  0.00  0.00    -0.297 N 
ATOM     14  H   VAL A   2     -32.835 -38.549   2.578  0.00  0.00    +0.150 HD
ATOM     15  O   ALA A   1     -29.852 -39.532   2.210  0.00  0.00    -0.274 OA
BRANCH  12  16
ATOM     16  CA  ALA A   1     -31.745 -40.832   2.862  0.00  0.00    +0.145 C 
ATOM     17  CB  ALA A   1     -31.468 -41.162   4.332  0.00  0.00    +0.028 C 
BRANCH  16  18
ATOM     18  N   ALA A   1     -31.188 -41.855   1.984  0.00  0.00    -0.238 NA
ATOM     19  H   ALA A   1     -30.440 -42.479   2.350  0.00  0.00    +0.142 HD
ENDBRANCH  16  18
ENDBRANCH  12  16
ENDBRANCH  11  13
BRANCH  11  20
ATOM     20  CB  VAL A   2     -31.687 -36.791   0.474  0.00  0.00    +0.027 C 
ATOM     21  CG2 VAL A   2     -33.203 -36.827   0.249  0.00  0.00    +0.002 C 
ATOM     22  CG1 VAL A   2     -30.980 -37.718  -0.512  0.00  0.00    +0.002 C 
ENDBRANCH  11  20
ENDBRANCH   7  11
ENDBRANCH   5   9
ENDBRANCH   1   5
BRANCH   2  23
ATOM     23  CA  ILE A   4     -33.499 -31.283   1.435  0.00  0.00    +0.149 C 
BRANCH  23  24
ATOM     24  C   ILE A   4     -33.616 -29.854   1.915  0.00  0.00    +0.241 C 
ATOM     25  O   ILE A   4     -34.398 -29.566   2.824  0.00  0.00    -0.273 OA
ATOM     26  N   LYS A   5     -32.878 -28.961   1.274  0.00  0.00    -0.298 N 
ATOM     27  H   LYS A   5     -32.216 -29.281   0.538  0.00  0.00    +0.150 HD
BRANCH  26  28
ATOM     28  CA  LYS A   5     -32.974 -27.532   1.579  0.00  0.00    +0.137 C 
BRANCH  28  29
ATOM     29  C   LYS A   5     -34.003 -26.956   0.619  0.00  0.00    +0.227 C 
ATOM     30  O   LYS A   5     -33.914 -27.175  -0.589  0.00  0.00    -0.286 OA
ENDBRANCH  28  29
BRANCH  28  31
ATOM     31  CB  LYS A   5     -31.617 -26.836   1.445  0.00  0.00    +0.028 C 
BRANCH  31  32
ATOM     32  CG  LYS A   5     -30.619 -27.325   2.513  0.00  0.00    -0.000 C 
BRANCH  32  33
ATOM     33  CD  LYS A   5     -29.334 -26.528   2.585  0.00  0.00    -0.024 C 
BRANCH  33  34
ATOM     34  CE  LYS A   5     -29.535 -25.110   3.093  0.00  0.00    -0.086 C 
BRANCH  34  35
ATOM     35  NZ  LYS A   5     -28.238 -24.501   3.481  0.00  0.00    +0.380 N 
ATOM     36  HZ1 LYS A   5     -27.801 -25.069   4.235  0.00  0.00    -0.089 HD
ATOM     37  HZ2 LYS A   5     -28.400 -23.533   3.825  0.00  0.00    -0.089 HD
ATOM     38  HZ3 LYS A   5     -27.607 -24.476   2.654  0.00  0.00    -0.089 HD
ENDBRANCH  34  35
ENDBRANCH  33  34
ENDBRANCH  32  33
ENDBRANCH  31  32
ENDBRANCH  28  31
ENDBRANCH  26  28
ENDBRANCH  23  24
BRANCH  23  39
ATOM     39  CB  ILE A   4     -34.873 -31.861   1.018  0.00  0.00    +0.027 C 
ATOM     40  CG2 ILE A   4     -35.576 -30.976  -0.041  0.00  0.00    +0.002 C 
BRANCH  39  41
ATOM     41  CG1 ILE A   4     -34.754 -33.336   0.524  0.00  0.00    +0.002 C 
ATOM     42  CD1 ILE A   4     -35.943 -34.139   0.755  0.00  0.00    +0.000 C 
ENDBRANCH  39  41
ENDBRANCH  23  39
ENDBRANCH   2  23
TORSDOF 18
REMARK  Name = ../refined-set-2016/4k9y/4k9y_pocket.pdb
REMARK  281 active torsions:
REMARK  status: ('A' for Active; 'I' for Inactive)
REMARK    1  A    between atoms: _1  and  _3
REMARK    2  A    between atoms: _3  and  _4
REMARK    3  A    between atoms: _3  and  _6
REMARK    4  A    between atoms: _6  and  _7
REMARK    5  A    between atoms: _7  and  _8
REMARK    6  A    between atoms: _8  and  _9
REMARK    7  A    between atoms: _18  and  _20
REMARK    8  A    between atoms: _20  and  _21
REMARK    9  A    between atoms: _20  and  _23
REMARK   10  A    between atoms: _23  and  _24
REMARK   11  A    between atoms: _27  and  _29
REMARK   12  A    between atoms: _29  and  _30
REMARK   13  A    between atoms: _32  and  _34
REMARK   14  A    between atoms: _34  and  _35
REMARK   15  A    between atoms: _34  and  _37
REMARK   16  A    between atoms: _37  and  _38
REMARK   17  A    between atoms: _38  and  _39
REMARK   18  A    between atoms: _42  and  _44
REMARK   19  A    between atoms: _44  and  _45
REMARK   20  A    between atoms: _44  and  _47
REMARK   21  A    between atoms: _47  and  _48
REMARK   22  A    between atoms: _54  and  _56
REMARK   23  A    between atoms: _56  and  _57
REMARK   24  A    between atoms: _56  and  _59
REMARK   25  A    between atoms: _62  and  _64
REMARK   26  A    between atoms: _64  and  _65
REMARK   27  A    between atoms: _64  and  _67
REMARK   28  A    between atoms: _67  and  _68
REMARK   29  A    between atoms: _73  and  _75
REMARK   30  A    between atoms: _75  and  _76
REMARK   31  A    between atoms: _75  and  _78
REMARK   32  A    between atoms: _78  and  _79
REMARK   33  A    between atoms: _79  and  _80
REMARK   34  A    between atoms: _85  and  _87
REMARK   35  A    between atoms: _87  and  _88
REMARK   36  A    between atoms: _91  and  _93
REMARK   37  A    between atoms: _93  and  _94
REMARK   38  A    between atoms: _93  and  _96
REMARK   39  A    between atoms: _99  and  _101
REMARK   40  A    between atoms: _101  and  _102
REMARK   41  A    between atoms: _105  and  _107
REMARK   42  A    between atoms: _107  and  _108
REMARK   43  A    between atoms: _107  and  _110
REMARK   44  A    between atoms: _110  and  _111
REMARK   45  A    between atoms: _114  and  _116
REMARK   46  A    between atoms: _116  and  _117
REMARK   47  A    between atoms: _116  and  _119
REMARK   48  A    between atoms: _119  and  _120
REMARK   49  A    between atoms: _120  and  _121
REMARK   50  A    between atoms: _121  and  _122
REMARK   51  A    between atoms: _122  and  _123
REMARK   52  A    between atoms: _127  and  _129
REMARK   53  A    between atoms: _129  and  _130
REMARK   54  A    between atoms: _129  and  _132
REMARK   55  A    between atoms: _132  and  _133
REMARK   56  A    between atoms: _133  and  _134
REMARK   57  A    between atoms: _134  and  _135
REMARK   58  A    between atoms: _135  and  _136
REMARK   59  A    between atoms: _140  and  _142
REMARK   60  A    between atoms: _142  and  _143
REMARK   61  A    between atoms: _142  and  _145
REMARK   62  A    between atoms: _145  and  _146
REMARK   63  A    between atoms: _152  and  _154
REMARK   64  A    between atoms: _154  and  _155
REMARK   65  A    between atoms: _154  and  _157
REMARK   66  A    between atoms: _157  and  _158
REMARK   67  A    between atoms: _161  and  _163
REMARK   68  A    between atoms: _163  and  _164
REMARK   69  A    between atoms: _163  and  _166
REMARK   70  A    between atoms: _166  and  _167
REMARK   71  A    between atoms: _167  and  _168
REMARK   72  A    between atoms: _173  and  _175
REMARK   73  A    between atoms: _175  and  _176
REMARK   74  A    between atoms: _175  and  _178
REMARK   75  A    between atoms: _178  and  _179
REMARK   76  A    between atoms: _179  and  _180
REMARK   77  A    between atoms: _183  and  _185
REMARK   78  A    between atoms: _185  and  _186
REMARK   79  A    between atoms: _189  and  _191
REMARK   80  A    between atoms: _191  and  _192
REMARK   81  A    between atoms: _191  and  _194
REMARK   82  A    between atoms: _194  and  _195
REMARK   83  A    between atoms: _198  and  _200
REMARK   84  A    between atoms: _200  and  _201
REMARK   85  A    between atoms: _200  and  _203
REMARK   86  A    between atoms: _203  and  _204
REMARK   87  A    between atoms: _207  and  _209
REMARK   88  A    between atoms: _209  and  _210
REMARK   89  A    between atoms: _209  and  _212
REMARK   90  A    between atoms: _212  and  _213
REMARK   91  A    between atoms: _213  and  _214
REMARK   92  A    between atoms: _216  and  _218
REMARK   93  A    between atoms: _218  and  _219
REMARK   94  A    between atoms: _218  and  _221
REMARK   95  A    between atoms: _221  and  _222
REMARK   96  A    between atoms: _222  and  _223
REMARK   97  A    between atoms: _223  and  _224
REMARK   98  A    between atoms: _233  and  _235
REMARK   99  A    between atoms: _235  and  _236
REMARK  100  A    between atoms: _235  and  _238
REMARK  101  A    between atoms: _238  and  _239
REMARK  102  A    between atoms: _239  and  _240
REMARK  103  A    between atoms: _245  and  _247
REMARK  104  A    between atoms: _247  and  _248
REMARK  105  A    between atoms: _247  and  _250
REMARK  106  A    between atoms: _250  and  _251
REMARK  107  A    between atoms: _257  and  _259
REMARK  108  A    between atoms: _259  and  _260
REMARK  109  A    between atoms: _259  and  _262
REMARK  110  A    between atoms: _262  and  _263
REMARK  111  A    between atoms: _266  and  _268
REMARK  112  A    between atoms: _268  and  _269
REMARK  113  A    between atoms: _268  and  _271
REMARK  114  A    between atoms: _271  and  _272
REMARK  115  A    between atoms: _277  and  _279
REMARK  116  A    between atoms: _279  and  _280
REMARK  117  A    between atoms: _279  and  _282
REMARK  118  A    between atoms: _282  and  _283
REMARK  119  A    between atoms: _286  and  _288
REMARK  120  A    between atoms: _288  and  _289
REMARK  121  A    between atoms: _288  and  _291
REMARK  122  A    between atoms: _294  and  _296
REMARK  123  A    between atoms: _296  and  _297
REMARK  124  A    between atoms: _296  and  _299
REMARK  125  A    between atoms: _299  and  _300
REMARK  126  A    between atoms: _300  and  _301
REMARK  127  A    between atoms: _301  and  _302
REMARK  128  A    between atoms: _302  and  _303
REMARK  129  A    between atoms: _307  and  _309
REMARK  130  A    between atoms: _309  and  _310
REMARK  131  A    between atoms: _309  and  _312
REMARK  132  A    between atoms: _312  and  _313
REMARK  133  A    between atoms: _316  and  _318
REMARK  134  A    between atoms: _318  and  _319
REMARK  135  A    between atoms: _318  and  _321
REMARK  136  A    between atoms: _321  and  _322
REMARK  137  A    between atoms: _325  and  _327
REMARK  138  A    between atoms: _327  and  _328
REMARK  139  A    between atoms: _327  and  _330
REMARK  140  A    between atoms: _330  and  _331
REMARK  141  A    between atoms: _334  and  _336
REMARK  142  A    between atoms: _336  and  _337
REMARK  143  A    between atoms: _336  and  _339
REMARK  144  A    between atoms: _339  and  _340
REMARK  145  A    between atoms: _340  and  _341
REMARK  146  A    between atoms: _343  and  _345
REMARK  147  A    between atoms: _345  and  _346
REMARK  148  A    between atoms: _345  and  _348
REMARK  149  A    between atoms: _348  and  _349
REMARK  150  A    between atoms: _349  and  _350
REMARK  151  A    between atoms: _353  and  _355
REMARK  152  A    between atoms: _355  and  _356
REMARK  153  A    between atoms: _355  and  _358
REMARK  154  A    between atoms: _358  and  _359
REMARK  155  A    between atoms: _362  and  _364
REMARK  156  A    between atoms: _364  and  _365
REMARK  157  A    between atoms: _364  and  _367
REMARK  158  A    between atoms: _369  and  _371
REMARK  159  A    between atoms: _371  and  _372
REMARK  160  A    between atoms: _371  and  _374
REMARK  161  A    between atoms: _374  and  _375
REMARK  162  A    between atoms: _378  and  _380
REMARK  163  A    between atoms: _380  and  _381
REMARK  164  A    between atoms: _380  and  _383
REMARK  165  A    between atoms: _383  and  _384
REMARK  166  A    between atoms: _387  and  _389
REMARK  167  A    between atoms: _389  and  _390
REMARK  168  A    between atoms: _392  and  _394
REMARK  169  A    between atoms: _394  and  _395
REMARK  170  A    between atoms: _394  and  _397
REMARK  171  A    between atoms: _397  and  _398
REMARK  172  A    between atoms: _398  and  _399
REMARK  173  A    between atoms: _402  and  _404
REMARK  174  A    between atoms: _404  and  _405
REMARK  175  A    between atoms: _408  and  _410
REMARK  176  A    between atoms: _410  and  _411
REMARK  177  A    between atoms: _410  and  _413
REMARK  178  A    between atoms: _413  and  _414
REMARK  179  A    between atoms: _417  and  _419
REMARK  180  A    between atoms: _419  and  _420
REMARK  181  A    between atoms: _419  and  _422
REMARK  182  A    between atoms: _422  and  _423
REMARK  183  A    between atoms: _428  and  _429
REMARK  184  A    between atoms: _431  and  _433
REMARK  185  A    between atoms: _433  and  _434
REMARK  186  A    between atoms: _433  and  _436
REMARK  187  A    between atoms: _436  and  _437
REMARK  188  A    between atoms: _440  and  _442
REMARK  189  A    between atoms: _442  and  _443
REMARK  190  A    between atoms: _442  and  _445
REMARK  191  A    between atoms: _445  and  _446
REMARK  192  A    between atoms: _452  and  _454
REMARK  193  A    between atoms: _454  and  _455
REMARK  194  A    between atoms: _454  and  _457
REMARK  195  A    between atoms: _460  and  _462
REMARK  196  A    between atoms: _462  and  _463
REMARK  197  A    between atoms: _462  and  _465
REMARK  198  A    between atoms: _465  and  _466
REMARK  199  A    between atoms: _471  and  _473
REMARK  200  A    between atoms: _473  and  _474
REMARK  201  A    between atoms: _473  and  _476
REMARK  202  A    between atoms: _476  and  _477
REMARK  203  A    between atoms: _477  and  _478
REMARK  204  A    between atoms: _478  and  _479
REMARK  205  A    between atoms: _488  and  _490
REMARK  206  A    between atoms: _490  and  _491
REMARK  207  A    between atoms: _490  and  _493
REMARK  208  A    between atoms: _493  and  _494
REMARK  209  A    between atoms: _497  and  _499
REMARK  210  A    between atoms: _499  and  _500
REMARK  211  A    between atoms: _499  and  _502
REMARK  212  A    between atoms: _502  and  _503
REMARK  213  A    between atoms: _506  and  _508
REMARK  214  A    between atoms: _508  and  _509
REMARK  215  A    between atoms: _508  and  _511
REMARK  216  A    between atoms: _511  and  _512
REMARK  217  A    between atoms: _517  and  _519
REMARK  218  A    between atoms: _519  and  _520
REMARK  219  A    between atoms: _519  and  _522
REMARK  220  A    between atoms: _525  and  _527
REMARK  221  A    between atoms: _527  and  _528
REMARK  222  A    between atoms: _527  and  _530
REMARK  223  A    between atoms: _530  and  _531
REMARK  224  A    between atoms: _534  and  _536
REMARK  225  A    between atoms: _536  and  _537
REMARK  226  A    between atoms: _536  and  _539
REMARK  227  A    between atoms: _542  and  _544
REMARK  228  A    between atoms: _544  and  _545
REMARK  229  A    between atoms: _544  and  _547
REMARK  230  A    between atoms: _547  and  _548
REMARK  231  A    between atoms: _550  and  _552
REMARK  232  A    between atoms: _552  and  _553
REMARK  233  A    between atoms: _552  and  _555
REMARK  234  A    between atoms: _555  and  _556
REMARK  235  A    between atoms: _556  and  _557
REMARK  236  A    between atoms: _557  and  _558
REMARK  237  A    between atoms: _558  and  _559
REMARK  238  A    between atoms: _563  and  _565
REMARK  239  A    between atoms: _565  and  _566
REMARK  240  A    between atoms: _565  and  _568
REMARK  241  A    between atoms: _568  and  _569
REMARK  242  A    between atoms: _572  and  _574
REMARK  243  A    between atoms: _574  and  _575
REMARK  244  A    between atoms: _577  and  _579
REMARK  245  A    between atoms: _579  and  _580
REMARK  246  A    between atoms: _579  and  _582
REMARK  247  A    between atoms: _582  and  _583
REMARK  248  A    between atoms: _586  and  _588
REMARK  249  A    between atoms: _588  and  _589
REMARK  250  A    between atoms: _588  and  _591
REMARK  251  A    between atoms: _591  and  _592
REMARK  252  A    between atoms: _598  and  _600
REMARK  253  A    between atoms: _600  and  _601
REMARK  254  A    between atoms: _603  and  _605
REMARK  255  A    between atoms: _605  and  _606
REMARK  256  A    between atoms: _605  and  _608
REMARK  257  A    between atoms: _608  and  _609
REMARK  258  A    between atoms: _612  and  _614
REMARK  259  A    between atoms: _614  and  _615
REMARK  260  A    between atoms: _614  and  _617
REMARK  261  A    between atoms: _617  and  _618
REMARK  262  A    between atoms: _620  and  _622
REMARK  263  A    between atoms: _622  and  _623
REMARK  264  A    between atoms: _622  and  _625
REMARK  265  A    between atoms: _625  and  _626
REMARK  266  A    between atoms: _626  and  _627
REMARK  267  A    between atoms: _627  and  _628
REMARK  268  A    between atoms: _637  and  _639
REMARK  269  A    between atoms: _639  and  _640
REMARK  270  A    between atoms: _639  and  _642
REMARK  271  A    between atoms: _642  and  _643
REMARK  272  A    between atoms: _648  and  _649
REMARK  273  A    between atoms: _651  and  _653
REMARK  274  A    between atoms: _653  and  _654
REMARK  275  A    between atoms: _653  and  _656
REMARK  276  A    between atoms: _656  and  _657
REMARK  277  A    between atoms: _657  and  _658
REMARK  278  A    between atoms: _660  and  _662
REMARK  279  A    between atoms: _662  and  _663
REMARK  280  A    between atoms: _662  and  _665
REMARK  281  A    between atoms: _665  and  _666
REMARK                            x       y       z     vdW  Elec       q    Type
REMARK                         _______ _______ _______ _____ _____    ______ ____
ROOT
ATOM      1  C   LEU A   7     -20.812 -24.987  -6.324  0.00  0.00    +0.241 C 
ATOM      2  N   THR A   8     -20.696 -24.641  -5.034  0.00  0.00    -0.295 N 
ATOM      3  H   THR A   8     -21.479 -24.143  -4.565  0.00  0.00    +0.150 HD
ATOM      4  O   LEU A   7     -19.941 -25.608  -6.930  0.00  0.00    -0.273 OA
ENDROOT
BRANCH   1   5
ATOM      5  CA  LEU A   7     -22.117 -24.666  -7.019  0.00  0.00    +0.149 C 
BRANCH   5   8
ATOM      6  C   ALA A   6     -23.562 -26.183  -5.699  0.00  0.00    +0.241 C 
ATOM      7  O   ALA A   6     -22.879 -27.167  -5.935  0.00  0.00    -0.273 OA
ATOM      8  N   LEU A   7     -23.260 -24.957  -6.159  0.00  0.00    -0.297 N 
ATOM      9  H   LEU A   7     -23.879 -24.167  -5.885  0.00  0.00    +0.150 HD
BRANCH   6  10
ATOM     10  CA  ALA A   6     -24.804 -26.337  -4.807  0.00  0.00    +0.149 C 
ATOM     11  CB  ALA A   6     -26.062 -26.453  -5.660  0.00  0.00    +0.031 C 
BRANCH  10  14
ATOM     12  C   GLU A   5     -23.966 -24.979  -2.945  0.00  0.00    +0.241 C 
ATOM     13  O   GLU A   5     -22.969 -25.699  -2.781  0.00  0.00    -0.273 OA
ATOM     14  N   ALA A   6     -24.908 -25.203  -3.896  0.00  0.00    -0.297 N 
ATOM     15  H   ALA A   6     -25.718 -24.555  -3.976  0.00  0.00    +0.150 HD
BRANCH  12  16
ATOM     16  CA  GLU A   5     -24.153 -23.755  -2.054  0.00  0.00    +0.149 C 
BRANCH  16  18
ATOM     17  C   GLN A   4     -23.700 -22.089  -3.763  0.00  0.00    +0.241 C 
ATOM     18  N   GLU A   5     -24.555 -22.610  -2.861  0.00  0.00    -0.297 N 
ATOM     19  H   GLU A   5     -25.501 -22.195  -2.741  0.00  0.00    +0.150 HD
ATOM     20  O   GLN A   4     -22.561 -22.511  -3.906  0.00  0.00    -0.273 OA
BRANCH  17  21
ATOM     21  CA  GLN A   4     -24.167 -20.851  -4.537  0.00  0.00    +0.149 C 
BRANCH  21  23
ATOM     22  C   LEU A   3     -26.181 -22.055  -5.350  0.00  0.00    +0.241 C 
ATOM     23  N   GLN A   4     -25.614 -20.976  -4.778  0.00  0.00    -0.297 N 
ATOM     24  H   GLN A   4     -26.231 -20.189  -4.491  0.00  0.00    +0.150 HD
ATOM     25  O   LEU A   3     -25.531 -23.030  -5.735  0.00  0.00    -0.273 OA
BRANCH  22  26
ATOM     26  CA  LEU A   3     -27.702 -22.140  -5.417  0.00  0.00    +0.149 C 
BRANCH  26  29
ATOM     27  C   PHE A   2     -28.509 -21.121  -3.305  0.00  0.00    +0.241 C 
ATOM     28  O   PHE A   2     -27.914 -21.926  -2.587  0.00  0.00    -0.273 OA
ATOM     29  N   LEU A   3     -28.418 -21.120  -4.651  0.00  0.00    -0.297 N 
ATOM     30  H   LEU A   3     -28.883 -20.351  -5.174  0.00  0.00    +0.150 HD
BRANCH  27  31
ATOM     31  CA  PHE A   2     -29.377 -20.029  -2.664  0.00  0.00    +0.153 C 
BRANCH  31  34
ATOM     32  C   LYS A   1     -27.906 -18.121  -3.177  0.00  0.00    +0.238 C 
ATOM     33  O   LYS A   1     -26.939 -18.649  -2.626  0.00  0.00    -0.274 OA
ATOM     34  N   PHE A   2     -29.105 -18.695  -3.219  0.00  0.00    -0.297 N 
ATOM     35  H   PHE A   2     -29.887 -18.175  -3.666  0.00  0.00    +0.150 HD
BRANCH  32  36
ATOM     36  CA  LYS A   1     -27.766 -16.706  -3.823  0.00  0.00    +0.145 C 
BRANCH  36  37
ATOM     37  N   LYS A   1     -28.408 -16.667  -5.152  0.00  0.00    -0.238 NA
ATOM     38  H   LYS A   1     -29.214 -16.033  -5.324  0.00  0.00    +0.142 HD
ENDBRANCH  36  37
BRANCH  36  39
ATOM     39  CB  LYS A   1     -28.373 -15.638  -2.909  0.00  0.00    +0.026 C 
BRANCH  39  40
ATOM     40  CG  LYS A   1     -27.437 -15.191  -1.796  0.00  0.00    -0.000 C 
BRANCH  40  41
ATOM     41  CD  LYS A   1     -27.983 -13.918  -1.164  0.00  0.00    -0.024 C 
BRANCH  41  42
ATOM     42  CE  LYS A   1     -27.000 -13.231  -0.241  0.00  0.00    -0.086 C 
BRANCH  42  43
ATOM     43  NZ  LYS A   1     -25.888 -12.585  -1.000  0.00  0.00    +0.380 N 
ATOM     44  HZ1 LYS A   1     -25.236 -12.125  -0.333  0.00  0.00    -0.089 HD
ATOM     45  HZ2 LYS A   1     -25.376 -13.308  -1.545  0.00  0.00    -0.089 HD
ATOM     46  HZ3 LYS A   1     -26.280 -11.873  -1.649  0.00  0.00    -0.089 HD
ENDBRANCH  42  43
ENDBRANCH  41  42
ENDBRANCH  40  41
ENDBRANCH  39  40
ENDBRANCH  36  39
ENDBRANCH  32  36
ENDBRANCH  31  34
BRANCH  31  47
ATOM     47  CB  PHE A   2     -30.879 -20.359  -2.814  0.00  0.00    +0.055 C 
BRANCH  47  48
ATOM     48  CG  PHE A   2     -31.338 -21.708  -2.299  0.00  0.00    -0.020 A 
ATOM     49  CD2 PHE A   2     -31.245 -22.024  -0.948  0.00  0.00    -0.004 A 
ATOM     50  CE2 PHE A   2     -31.683 -23.269  -0.464  0.00  0.00    -0.000 A 
ATOM     51  CZ  PHE A   2     -32.248 -24.184  -1.330  0.00  0.00    -0.000 A 
ATOM     52  CE1 PHE A   2     -32.376 -23.874  -2.674  0.00  0.00    -0.000 A 
ATOM     53  CD1 PHE A   2     -31.928 -22.633  -3.155  0.00  0.00    -0.004 A 
ENDBRANCH  47  48
ENDBRANCH  31  47
ENDBRANCH  27  31
ENDBRANCH  26  29
BRANCH  26  54
ATOM     54  CB  LEU A   3     -28.178 -22.194  -6.881  0.00  0.00    +0.029 C 
BRANCH  54  55
ATOM     55  CG  LEU A   3     -29.624 -22.684  -7.091  0.00  0.00    +0.002 C 
ATOM     56  CD2 LEU A   3     -29.819 -24.117  -6.592  0.00  0.00    +0.000 C 
ATOM     57  CD1 LEU A   3     -30.025 -22.591  -8.570  0.00  0.00    +0.000 C 
ENDBRANCH  54  55
ENDBRANCH  26  54
ENDBRANCH  22  26
ENDBRANCH  21  23
BRANCH  21  58
ATOM     58  CB  GLN A   4     -23.854 -19.651  -3.623  0.00  0.00    +0.039 C 
BRANCH  58  59
ATOM     59  CG  GLN A   4     -23.855 -18.274  -4.276  0.00  0.00    +0.087 C 
BRANCH  59  60
ATOM     60  CD  GLN A   4     -23.654 -17.202  -3.211  0.00  0.00    +0.219 C 
ATOM     61  OE1 GLN A   4     -24.425 -17.067  -2.244  0.00  0.00    -0.275 OA
ATOM     62  NE2 GLN A   4     -22.593 -16.450  -3.331  0.00  0.00    -0.329 N 
ATOM     63 HE21 GLN A   4     -22.384 -15.727  -2.613  0.00  0.00    +0.145 HD
ATOM     64 HE22 GLN A   4     -21.957 -16.574  -4.145  0.00  0.00    +0.145 HD
ENDBRANCH  59  60
ENDBRANCH  58  59
ENDBRANCH  21  58
ENDBRANCH  17  21
ENDBRANCH  16  18
BRANCH  16  65
ATOM     65  CB  GLU A   5     -25.167 -24.030  -0.937  0.00  0.00    +0.041 C 
BRANCH  65  66
ATOM     66  CG  GLU A   5     -24.758 -25.161  -0.007  0.00  0.00    +0.116 C 
BRANCH  66  67
ATOM     67  CD  GLU A   5     -25.626 -25.306   1.224  0.00  0.00    +0.365 C 
ATOM     68  OE2 GLU A   5     -25.135 -25.874   2.225  0.00  0.00    -0.246 OA
ATOM     69  OE1 GLU A   5     -26.768 -24.798   1.215  0.00  0.00    -0.246 OA
ENDBRANCH  66  67
ENDBRANCH  65  66
ENDBRANCH  16  65
ENDBRANCH  12  16
ENDBRANCH  10  14
ENDBRANCH   6  10
ENDBRANCH   5   8
BRANCH   5  70
ATOM     70  CB  LEU A   7     -22.114 -23.213  -7.507  0.00  0.00    +0.029 C 
BRANCH  70  71
ATOM     71  CG  LEU A   7     -23.239 -22.758  -8.463  0.00  0.00    +0.002 C 
ATOM     72  CD2 LEU A   7     -23.008 -21.321  -8.918  0.00  0.00    +0.000 C 
ATOM     73  CD1 LEU A   7     -23.354 -23.649  -9.682  0.00  0.00    +0.000 C 
ENDBRANCH  70  71
ENDBRANCH   5  70
ENDBRANCH   1   5
BRANCH   2  74
ATOM     74  CA  THR A   8     -19.485 -24.953  -4.276  0.00  0.00    +0.176 C 
BRANCH  74  75
ATOM     75  C   THR A   8     -19.370 -26.476  -4.038  0.00  0.00    +0.243 C 
ATOM     76  N   MET A   9     -20.424 -27.120  -3.514  0.00  0.00    -0.297 N 
ATOM     77  H   MET A   9     -21.291 -26.571  -3.344  0.00  0.00    +0.150 HD
ATOM     78  O   THR A   8     -18.322 -27.038  -4.309  0.00  0.00    -0.273 OA
BRANCH  76  79
ATOM     79  CA  MET A   9     -20.439 -28.548  -3.164  0.00  0.00    +0.149 C 
BRANCH  79  80
ATOM     80  C   MET A   9     -20.212 -29.505  -4.331  0.00  0.00    +0.241 C 
ATOM     81  O   MET A   9     -19.547 -30.528  -4.152  0.00  0.00    -0.273 OA
ATOM     82  N   ARG A  10     -20.751 -29.156  -5.510  0.00  0.00    -0.297 N 
ATOM     83  H   ARG A  10     -21.275 -28.259  -5.550  0.00  0.00    +0.150 HD
BRANCH  82  84
ATOM     84  CA  ARG A  10     -20.659 -29.940  -6.747  0.00  0.00    +0.149 C 
BRANCH  84  85
ATOM     85  C   ARG A  10     -19.200 -30.262  -7.134  0.00  0.00    +0.241 C 
ATOM     86  N   GLN A  11     -18.239 -29.409  -6.739  0.00  0.00    -0.297 N 
ATOM     87  H   GLN A  11     -18.514 -28.587  -6.164  0.00  0.00    +0.150 HD
ATOM     88  O   ARG A  10     -18.953 -31.277  -7.769  0.00  0.00    -0.273 OA
BRANCH  86  89
ATOM     89  CA  GLN A  11     -16.817 -29.579  -7.079  0.00  0.00    +0.149 C 
BRANCH  89  90
ATOM     90  C   GLN A  11     -16.170 -30.790  -6.406  0.00  0.00    +0.241 C 
ATOM     91  N   PHE A  12     -16.731 -31.246  -5.301  0.00  0.00    -0.297 N 
ATOM     92  H   PHE A  12     -17.664 -30.887  -5.014  0.00  0.00    +0.150 HD
ATOM     93  O   GLN A  11     -15.119 -31.232  -6.836  0.00  0.00    -0.273 OA
BRANCH  91  94
ATOM     94  CA  PHE A  12     -16.069 -32.233  -4.487  0.00  0.00    +0.153 C 
BRANCH  94  95
ATOM     95  C   PHE A  12     -16.783 -33.550  -4.458  0.00  0.00    +0.241 C 
ATOM     96  N   ASP A  13     -16.009 -34.621  -4.333  0.00  0.00    -0.298 N 
ATOM     97  H   ASP A  13     -14.979 -34.479  -4.301  0.00  0.00    +0.150 HD
ATOM     98  O   PHE A  12     -18.009 -33.594  -4.562  0.00  0.00    -0.273 OA
BRANCH  96  99
ATOM     99  CA  ASP A  13     -16.515 -35.984  -4.238  0.00  0.00    +0.148 C 
BRANCH  99 100
ATOM    100  C   ASP A  13     -15.526 -36.754  -3.351  0.00  0.00    +0.227 C 
ATOM    101  O   ASP A  13     -14.445 -37.111  -3.799  0.00  0.00    -0.286 OA
ENDBRANCH  99 100
BRANCH  99 102
ATOM    102  CB  ASP A  13     -16.652 -36.602  -5.642  0.00  0.00    +0.142 C 
BRANCH 102 103
ATOM    103  CG  ASP A  13     -16.859 -38.111  -5.683  0.00  0.00    +0.367 C 
ATOM    104  OD2 ASP A  13     -17.715 -38.612  -4.934  0.00  0.00    -0.246 OA
ATOM    105  OD1 ASP A  13     -16.173 -38.785  -6.482  0.00  0.00    -0.246 OA
ENDBRANCH 102 103
ENDBRANCH  99 102
ENDBRANCH  96  99
ENDBRANCH  94  95
BRANCH  94 106
ATOM    106  CB  PHE A  12     -15.858 -31.647  -3.070  0.00  0.00    +0.055 C 
BRANCH 106 107
ATOM    107  CG  PHE A  12     -15.232 -30.262  -3.079  0.00  0.00    -0.020 A 
ATOM    108  CD2 PHE A  12     -15.931 -29.160  -2.593  0.00  0.00    -0.004 A 
ATOM    109  CE2 PHE A  12     -15.348 -27.881  -2.597  0.00  0.00    -0.000 A 
ATOM    110  CZ  PHE A  12     -14.086 -27.698  -3.130  0.00  0.00    -0.000 A 
ATOM    111  CE1 PHE A  12     -13.390 -28.774  -3.636  0.00  0.00    -0.000 A 
ATOM    112  CD1 PHE A  12     -13.961 -30.055  -3.610  0.00  0.00    -0.004 A 
ENDBRANCH 106 107
ENDBRANCH  94 106
ENDBRANCH  91  94
ENDBRANCH  89  90
BRANCH  89 113
ATOM    113  CB  GLN A  11     -16.014 -28.358  -6.590  0.00  0.00    +0.039 C 
BRANCH 113 114
ATOM    114  CG  GLN A  11     -16.408 -27.006  -7.171  0.00  0.00    +0.087 C 
BRANCH 114 115
ATOM    115  CD  GLN A  11     -15.650 -25.930  -6.422  0.00  0.00    +0.219 C 
ATOM    116  OE1 GLN A  11     -16.075 -25.451  -5.369  0.00  0.00    -0.275 OA
ATOM    117  NE2 GLN A  11     -14.448 -25.626  -6.876  0.00  0.00    -0.329 N 
ATOM    118 HE21 GLN A  11     -13.841 -24.971  -6.343  0.00  0.00    +0.145 HD
ATOM    119 HE22 GLN A  11     -14.108 -26.041  -7.767  0.00  0.00    +0.145 HD
ENDBRANCH 114 115
ENDBRANCH 113 114
ENDBRANCH  89 113
ENDBRANCH  86  89
ENDBRANCH  84  85
BRANCH  84 120
ATOM    120  CB  ARG A  10     -21.358 -29.166  -7.884  0.00  0.00    +0.033 C 
BRANCH 120 121
ATOM    121  CG  ARG A  10     -21.648 -29.961  -9.140  0.00  0.00    +0.045 C 
BRANCH 121 122
ATOM    122  CD  ARG A  10     -22.453 -29.149 -10.150  0.00  0.00    +0.174 C 
BRANCH 122 123
ATOM    123  NE  ARG A  10     -23.886 -29.187  -9.850  0.00  0.00    -0.265 N 
ATOM    124  HE  ARG A  10     -24.326 -30.120  -9.721  0.00  0.00    +0.259 HD
ATOM    125  CZ  ARG A  10     -24.665 -28.119  -9.731  0.00  0.00    +0.342 C 
ATOM    126  NH2 ARG A  10     -25.951 -28.258  -9.449  0.00  0.00    -0.292 N 
ATOM    127 HH21 ARG A  10     -26.355 -29.207  -9.320  0.00  0.00    +0.255 HD
ATOM    128 HH22 ARG A  10     -26.557 -27.418  -9.357  0.00  0.00    +0.255 HD
ATOM    129  NH1 ARG A  10     -24.163 -26.902  -9.886  0.00  0.00    -0.292 N 
ATOM    130 HH11 ARG A  10     -24.779 -26.069  -9.791  0.00  0.00    +0.255 HD
ATOM    131 HH12 ARG A  10     -23.153 -26.780 -10.102  0.00  0.00    +0.255 HD
ENDBRANCH 122 123
ENDBRANCH 121 122
ENDBRANCH 120 121
ENDBRANCH  84 120
ENDBRANCH  82  84
ENDBRANCH  79  80
BRANCH  79 132
ATOM    132  CB  MET A   9     -21.721 -28.933  -2.428  0.00  0.00    +0.041 C 
BRANCH 132 133
ATOM    133  CG  MET A   9     -21.878 -28.254  -1.079  0.00  0.00    +0.060 C 
BRANCH 133 134
ATOM    134  SD  MET A   9     -23.448 -28.694  -0.259  0.00  0.00    -0.139 S 
ATOM    135  CE  MET A   9     -23.099 -30.435   0.226  0.00  0.00    +0.069 C 
ENDBRANCH 133 134
ENDBRANCH 132 133
ENDBRANCH  79 132
ENDBRANCH  76  79
ENDBRANCH  74  75
BRANCH  74 136
ATOM    136  CB  THR A   8     -19.458 -24.138  -2.978  0.00  0.00    +0.137 C 
ATOM    137  CG2 THR A   8     -18.235 -24.454  -2.086  0.00  0.00    +0.034 C 
BRANCH 136 138
ATOM    138  OG1 THR A   8     -19.480 -22.761  -3.325  0.00  0.00    -0.382 OA
ATOM    139  HG1 THR A   8     -20.304 -22.564  -3.836  0.00  0.00    +0.210 HD
ENDBRANCH 136 138
ENDBRANCH  74 136
ENDBRANCH   2  74
TORSDOF 59
REMARK  Name = ../refined-set-2016/4k9y/4k9y_pocket.pdb
REMARK  281 active torsions:
REMARK  status: ('A' for Active; 'I' for Inactive)
REMARK    1  A    between atoms: _1  and  _3
REMARK    2  A    between atoms: _3  and  _4
REMARK    3  A    between atoms: _3  and  _6
REMARK    4  A    between atoms: _6  and  _7
REMARK    5  A    between atoms: _7  and  _8
REMARK    6  A    between atoms: _8  and  _9
REMARK    7  A    between atoms: _18  and  _20
REMARK    8  A    between atoms: _20  and  _21
REMARK    9  A    between atoms: _20  and  _23
REMARK   10  A    between atoms: _23  and  _24
REMARK   11  A    between atoms: _27  and  _29
REMARK   12  A    between atoms: _29  and  _30
REMARK   13  A    between atoms: _32  and  _34
REMARK   14  A    between atoms: _34  and  _35
REMARK   15  A    between atoms: _34  and  _37
REMARK   16  A    between atoms: _37  and  _38
REMARK   17  A    between atoms: _38  and  _39
REMARK   18  A    between atoms: _42  and  _44
REMARK   19  A    between atoms: _44  and  _45
REMARK   20  A    between atoms: _44  and  _47
REMARK   21  A    between atoms: _47  and  _48
REMARK   22  A    between atoms: _54  and  _56
REMARK   23  A    between atoms: _56  and  _57
REMARK   24  A    between atoms: _56  and  _59
REMARK   25  A    between atoms: _62  and  _64
REMARK   26  A    between atoms: _64  and  _65
REMARK   27  A    between atoms: _64  and  _67
REMARK   28  A    between atoms: _67  and  _68
REMARK   29  A    between atoms: _73  and  _75
REMARK   30  A    between atoms: _75  and  _76
REMARK   31  A    between atoms: _75  and  _78
REMARK   32  A    between atoms: _78  and  _79
REMARK   33  A    between atoms: _79  and  _80
REMARK   34  A    between atoms: _85  and  _87
REMARK   35  A    between atoms: _87  and  _88
REMARK   36  A    between atoms: _91  and  _93
REMARK   37  A    between atoms: _93  and  _94
REMARK   38  A    between atoms: _93  and  _96
REMARK   39  A    between atoms: _99  and  _101
REMARK   40  A    between atoms: _101  and  _102
REMARK   41  A    between atoms: _105  and  _107
REMARK   42  A    between atoms: _107  and  _108
REMARK   43  A    between atoms: _107  and  _110
REMARK   44  A    between atoms: _110  and  _111
REMARK   45  A    between atoms: _114  and  _116
REMARK   46  A    between atoms: _116  and  _117
REMARK   47  A    between atoms: _116  and  _119
REMARK   48  A    between atoms: _119  and  _120
REMARK   49  A    between atoms: _120  and  _121
REMARK   50  A    between atoms: _121  and  _122
REMARK   51  A    between atoms: _122  and  _123
REMARK   52  A    between atoms: _127  and  _129
REMARK   53  A    between atoms: _129  and  _130
REMARK   54  A    between atoms: _129  and  _132
REMARK   55  A    between atoms: _132  and  _133
REMARK   56  A    between atoms: _133  and  _134
REMARK   57  A    between atoms: _134  and  _135
REMARK   58  A    between atoms: _135  and  _136
REMARK   59  A    between atoms: _140  and  _142
REMARK   60  A    between atoms: _142  and  _143
REMARK   61  A    between atoms: _142  and  _145
REMARK   62  A    between atoms: _145  and  _146
REMARK   63  A    between atoms: _152  and  _154
REMARK   64  A    between atoms: _154  and  _155
REMARK   65  A    between atoms: _154  and  _157
REMARK   66  A    between atoms: _157  and  _158
REMARK   67  A    between atoms: _161  and  _163
REMARK   68  A    between atoms: _163  and  _164
REMARK   69  A    between atoms: _163  and  _166
REMARK   70  A    between atoms: _166  and  _167
REMARK   71  A    between atoms: _167  and  _168
REMARK   72  A    between atoms: _173  and  _175
REMARK   73  A    between atoms: _175  and  _176
REMARK   74  A    between atoms: _175  and  _178
REMARK   75  A    between atoms: _178  and  _179
REMARK   76  A    between atoms: _179  and  _180
REMARK   77  A    between atoms: _183  and  _185
REMARK   78  A    between atoms: _185  and  _186
REMARK   79  A    between atoms: _189  and  _191
REMARK   80  A    between atoms: _191  and  _192
REMARK   81  A    between atoms: _191  and  _194
REMARK   82  A    between atoms: _194  and  _195
REMARK   83  A    between atoms: _198  and  _200
REMARK   84  A    between atoms: _200  and  _201
REMARK   85  A    between atoms: _200  and  _203
REMARK   86  A    between atoms: _203  and  _204
REMARK   87  A    between atoms: _207  and  _209
REMARK   88  A    between atoms: _209  and  _210
REMARK   89  A    between atoms: _209  and  _212
REMARK   90  A    between atoms: _212  and  _213
REMARK   91  A    between atoms: _213  and  _214
REMARK   92  A    between atoms: _216  and  _218
REMARK   93  A    between atoms: _218  and  _219
REMARK   94  A    between atoms: _218  and  _221
REMARK   95  A    between atoms: _221  and  _222
REMARK   96  A    between atoms: _222  and  _223
REMARK   97  A    between atoms: _223  and  _224
REMARK   98  A    between atoms: _233  and  _235
REMARK   99  A    between atoms: _235  and  _236
REMARK  100  A    between atoms: _235  and  _238
REMARK  101  A    between atoms: _238  and  _239
REMARK  102  A    between atoms: _239  and  _240
REMARK  103  A    between atoms: _245  and  _247
REMARK  104  A    between atoms: _247  and  _248
REMARK  105  A    between atoms: _247  and  _250
REMARK  106  A    between atoms: _250  and  _251
REMARK  107  A    between atoms: _257  and  _259
REMARK  108  A    between atoms: _259  and  _260
REMARK  109  A    between atoms: _259  and  _262
REMARK  110  A    between atoms: _262  and  _263
REMARK  111  A    between atoms: _266  and  _268
REMARK  112  A    between atoms: _268  and  _269
REMARK  113  A    between atoms: _268  and  _271
REMARK  114  A    between atoms: _271  and  _272
REMARK  115  A    between atoms: _277  and  _279
REMARK  116  A    between atoms: _279  and  _280
REMARK  117  A    between atoms: _279  and  _282
REMARK  118  A    between atoms: _282  and  _283
REMARK  119  A    between atoms: _286  and  _288
REMARK  120  A    between atoms: _288  and  _289
REMARK  121  A    between atoms: _288  and  _291
REMARK  122  A    between atoms: _294  and  _296
REMARK  123  A    between atoms: _296  and  _297
REMARK  124  A    between atoms: _296  and  _299
REMARK  125  A    between atoms: _299  and  _300
REMARK  126  A    between atoms: _300  and  _301
REMARK  127  A    between atoms: _301  and  _302
REMARK  128  A    between atoms: _302  and  _303
REMARK  129  A    between atoms: _307  and  _309
REMARK  130  A    between atoms: _309  and  _310
REMARK  131  A    between atoms: _309  and  _312
REMARK  132  A    between atoms: _312  and  _313
REMARK  133  A    between atoms: _316  and  _318
REMARK  134  A    between atoms: _318  and  _319
REMARK  135  A    between atoms: _318  and  _321
REMARK  136  A    between atoms: _321  and  _322
REMARK  137  A    between atoms: _325  and  _327
REMARK  138  A    between atoms: _327  and  _328
REMARK  139  A    between atoms: _327  and  _330
REMARK  140  A    between atoms: _330  and  _331
REMARK  141  A    between atoms: _334  and  _336
REMARK  142  A    between atoms: _336  and  _337
REMARK  143  A    between atoms: _336  and  _339
REMARK  144  A    between atoms: _339  and  _340
REMARK  145  A    between atoms: _340  and  _341
REMARK  146  A    between atoms: _343  and  _345
REMARK  147  A    between atoms: _345  and  _346
REMARK  148  A    between atoms: _345  and  _348
REMARK  149  A    between atoms: _348  and  _349
REMARK  150  A    between atoms: _349  and  _350
REMARK  151  A    between atoms: _353  and  _355
REMARK  152  A    between atoms: _355  and  _356
REMARK  153  A    between atoms: _355  and  _358
REMARK  154  A    between atoms: _358  and  _359
REMARK  155  A    between atoms: _362  and  _364
REMARK  156  A    between atoms: _364  and  _365
REMARK  157  A    between atoms: _364  and  _367
REMARK  158  A    between atoms: _369  and  _371
REMARK  159  A    between atoms: _371  and  _372
REMARK  160  A    between atoms: _371  and  _374
REMARK  161  A    between atoms: _374  and  _375
REMARK  162  A    between atoms: _378  and  _380
REMARK  163  A    between atoms: _380  and  _381
REMARK  164  A    between atoms: _380  and  _383
REMARK  165  A    between atoms: _383  and  _384
REMARK  166  A    between atoms: _387  and  _389
REMARK  167  A    between atoms: _389  and  _390
REMARK  168  A    between atoms: _392  and  _394
REMARK  169  A    between atoms: _394  and  _395
REMARK  170  A    between atoms: _394  and  _397
REMARK  171  A    between atoms: _397  and  _398
REMARK  172  A    between atoms: _398  and  _399
REMARK  173  A    between atoms: _402  and  _404
REMARK  174  A    between atoms: _404  and  _405
REMARK  175  A    between atoms: _408  and  _410
REMARK  176  A    between atoms: _410  and  _411
REMARK  177  A    between atoms: _410  and  _413
REMARK  178  A    between atoms: _413  and  _414
REMARK  179  A    between atoms: _417  and  _419
REMARK  180  A    between atoms: _419  and  _420
REMARK  181  A    between atoms: _419  and  _422
REMARK  182  A    between atoms: _422  and  _423
REMARK  183  A    between atoms: _428  and  _429
REMARK  184  A    between atoms: _431  and  _433
REMARK  185  A    between atoms: _433  and  _434
REMARK  186  A    between atoms: _433  and  _436
REMARK  187  A    between atoms: _436  and  _437
REMARK  188  A    between atoms: _440  and  _442
REMARK  189  A    between atoms: _442  and  _443
REMARK  190  A    between atoms: _442  and  _445
REMARK  191  A    between atoms: _445  and  _446
REMARK  192  A    between atoms: _452  and  _454
REMARK  193  A    between atoms: _454  and  _455
REMARK  194  A    between atoms: _454  and  _457
REMARK  195  A    between atoms: _460  and  _462
REMARK  196  A    between atoms: _462  and  _463
REMARK  197  A    between atoms: _462  and  _465
REMARK  198  A    between atoms: _465  and  _466
REMARK  199  A    between atoms: _471  and  _473
REMARK  200  A    between atoms: _473  and  _474
REMARK  201  A    between atoms: _473  and  _476
REMARK  202  A    between atoms: _476  and  _477
REMARK  203  A    between atoms: _477  and  _478
REMARK  204  A    between atoms: _478  and  _479
REMARK  205  A    between atoms: _488  and  _490
REMARK  206  A    between atoms: _490  and  _491
REMARK  207  A    between atoms: _490  and  _493
REMARK  208  A    between atoms: _493  and  _494
REMARK  209  A    between atoms: _497  and  _499
REMARK  210  A    between atoms: _499  and  _500
REMARK  211  A    between atoms: _499  and  _502
REMARK  212  A    between atoms: _502  and  _503
REMARK  213  A    between atoms: _506  and  _508
REMARK  214  A    between atoms: _508  and  _509
REMARK  215  A    between atoms: _508  and  _511
REMARK  216  A    between atoms: _511  and  _512
REMARK  217  A    between atoms: _517  and  _519
REMARK  218  A    between atoms: _519  and  _520
REMARK  219  A    between atoms: _519  and  _522
REMARK  220  A    between atoms: _525  and  _527
REMARK  221  A    between atoms: _527  and  _528
REMARK  222  A    between atoms: _527  and  _530
REMARK  223  A    between atoms: _530  and  _531
REMARK  224  A    between atoms: _534  and  _536
REMARK  225  A    between atoms: _536  and  _537
REMARK  226  A    between atoms: _536  and  _539
REMARK  227  A    between atoms: _542  and  _544
REMARK  228  A    between atoms: _544  and  _545
REMARK  229  A    between atoms: _544  and  _547
REMARK  230  A    between atoms: _547  and  _548
REMARK  231  A    between atoms: _550  and  _552
REMARK  232  A    between atoms: _552  and  _553
REMARK  233  A    between atoms: _552  and  _555
REMARK  234  A    between atoms: _555  and  _556
REMARK  235  A    between atoms: _556  and  _557
REMARK  236  A    between atoms: _557  and  _558
REMARK  237  A    between atoms: _558  and  _559
REMARK  238  A    between atoms: _563  and  _565
REMARK  239  A    between atoms: _565  and  _566
REMARK  240  A    between atoms: _565  and  _568
REMARK  241  A    between atoms: _568  and  _569
REMARK  242  A    between atoms: _572  and  _574
REMARK  243  A    between atoms: _574  and  _575
REMARK  244  A    between atoms: _577  and  _579
REMARK  245  A    between atoms: _579  and  _580
REMARK  246  A    between atoms: _579  and  _582
REMARK  247  A    between atoms: _582  and  _583
REMARK  248  A    between atoms: _586  and  _588
REMARK  249  A    between atoms: _588  and  _589
REMARK  250  A    between atoms: _588  and  _591
REMARK  251  A    between atoms: _591  and  _592
REMARK  252  A    between atoms: _598  and  _600
REMARK  253  A    between atoms: _600  and  _601
REMARK  254  A    between atoms: _603  and  _605
REMARK  255  A    between atoms: _605  and  _606
REMARK  256  A    between atoms: _605  and  _608
REMARK  257  A    between atoms: _608  and  _609
REMARK  258  A    between atoms: _612  and  _614
REMARK  259  A    between atoms: _614  and  _615
REMARK  260  A    between atoms: _614  and  _617
REMARK  261  A    between atoms: _617  and  _618
REMARK  262  A    between atoms: _620  and  _622
REMARK  263  A    between atoms: _622  and  _623
REMARK  264  A    between atoms: _622  and  _625
REMARK  265  A    between atoms: _625  and  _626
REMARK  266  A    between atoms: _626  and  _627
REMARK  267  A    between atoms: _627  and  _628
REMARK  268  A    between atoms: _637  and  _639
REMARK  269  A    between atoms: _639  and  _640
REMARK  270  A    between atoms: _639  and  _642
REMARK  271  A    between atoms: _642  and  _643
REMARK  272  A    between atoms: _648  and  _649
REMARK  273  A    between atoms: _651  and  _653
REMARK  274  A    between atoms: _653  and  _654
REMARK  275  A    between atoms: _653  and  _656
REMARK  276  A    between atoms: _656  and  _657
REMARK  277  A    between atoms: _657  and  _658
REMARK  278  A    between atoms: _660  and  _662
REMARK  279  A    between atoms: _662  and  _663
REMARK  280  A    between atoms: _662  and  _665
REMARK  281  A    between atoms: _665  and  _666
REMARK                            x       y       z     vdW  Elec       q    Type
REMARK                         _______ _______ _______ _____ _____    ______ ____
ROOT
ATOM      1  CA  VAL A   3     -21.116 -34.056   2.556  0.00  0.00    +0.149 C 
ENDROOT
BRANCH   1   3
ATOM      2  C   ILE A   2     -18.755 -34.766   2.375  0.00  0.00    +0.241 C 
ATOM      3  N   VAL A   3     -19.679 -33.931   2.916  0.00  0.00    -0.297 N 
ATOM      4  H   VAL A   3     -19.379 -33.197   3.589  0.00  0.00    +0.150 HD
ATOM      5  O   ILE A   2     -19.044 -35.665   1.574  0.00  0.00    -0.273 OA
BRANCH   2   6
ATOM      6  CA  ILE A   2     -17.281 -34.566   2.757  0.00  0.00    +0.148 C 
BRANCH   6   9
ATOM      7  C   HIS A   1     -16.183 -36.267   4.184  0.00  0.00    +0.239 C 
ATOM      8  O   HIS A   1     -15.937 -35.469   5.099  0.00  0.00    -0.274 OA
ATOM      9  N   ILE A   2     -16.777 -35.914   3.034  0.00  0.00    -0.297 N 
ATOM     10  H   ILE A   2     -16.886 -36.639   2.296  0.00  0.00    +0.150 HD
BRANCH   7  11
ATOM     11  CA  HIS A   1     -15.866 -37.737   4.344  0.00  0.00    +0.151 C 
BRANCH  11  12
ATOM     12  N   HIS A   1     -15.695 -38.432   3.065  0.00  0.00    -0.238 NA
ATOM     13  H   HIS A   1     -14.942 -38.143   2.408  0.00  0.00    +0.142 HD
ENDBRANCH  11  12
BRANCH  11  14
ATOM     14  CB  HIS A   1     -14.657 -37.988   5.279  0.00  0.00    +0.074 C 
BRANCH  14  15
ATOM     15  CG  HIS A   1     -14.588 -39.431   5.648  0.00  0.00    +0.082 A 
ATOM     16  ND1 HIS A   1     -15.555 -40.009   6.452  0.00  0.00    -0.227 NA
ATOM     17  CE1 HIS A   1     -15.248 -41.299   6.512  0.00  0.00    +0.199 A 
ATOM     18  NE2 HIS A   1     -14.149 -41.571   5.802  0.00  0.00    -0.221 NA
ATOM     19  CD2 HIS A   1     -13.732 -40.395   5.225  0.00  0.00    +0.115 A 
ENDBRANCH  14  15
ENDBRANCH  11  14
ENDBRANCH   7  11
ENDBRANCH   6   9
BRANCH   6  20
ATOM     20  CB  ILE A   2     -16.503 -33.812   1.633  0.00  0.00    +0.027 C 
ATOM     21  CG2 ILE A   2     -17.214 -32.461   1.277  0.00  0.00    +0.002 C 
BRANCH  20  22
ATOM     22  CG1 ILE A   2     -15.038 -33.558   2.065  0.00  0.00    +0.002 C 
ATOM     23  CD1 ILE A   2     -14.151 -33.043   1.011  0.00  0.00    +0.000 C 
ENDBRANCH  20  22
ENDBRANCH   6  20
ENDBRANCH   2   6
ENDBRANCH   1   3
BRANCH   1  24
ATOM     24  C   VAL A   3     -21.268 -33.942   1.030  0.00  0.00    +0.241 C 
ATOM     25  O   VAL A   3     -20.806 -32.971   0.445  0.00  0.00    -0.273 OA
ATOM     26  N   LYS A   4     -21.933 -34.930   0.400  0.00  0.00    -0.297 N 
ATOM     27  H   LYS A   4     -22.333 -35.702   0.971  0.00  0.00    +0.150 HD
BRANCH  26  28
ATOM     28  CA  LYS A   4     -22.117 -34.966  -1.050  0.00  0.00    +0.149 C 
BRANCH  28  29
ATOM     29  C   LYS A   4     -23.388 -34.259  -1.478  0.00  0.00    +0.241 C 
ATOM     30  O   LYS A   4     -24.433 -34.388  -0.842  0.00  0.00    -0.273 OA
ATOM     31  N   LEU A   5     -23.297 -33.540  -2.585  0.00  0.00    -0.298 N 
ATOM     32  H   LEU A   5     -22.361 -33.413  -3.021  0.00  0.00    +0.150 HD
BRANCH  31  33
ATOM     33  CA  LEU A   5     -24.439 -32.926  -3.211  0.00  0.00    +0.137 C 
BRANCH  33  34
ATOM     34  C   LEU A   5     -25.022 -34.044  -4.068  0.00  0.00    +0.227 C 
ATOM     35  O   LEU A   5     -24.300 -34.633  -4.874  0.00  0.00    -0.286 OA
ENDBRANCH  33  34
BRANCH  33  36
ATOM     36  CB  LEU A   5     -24.008 -31.775  -4.116  0.00  0.00    +0.028 C 
BRANCH  36  37
ATOM     37  CG  LEU A   5     -25.145 -31.199  -4.984  0.00  0.00    +0.002 C 
ATOM     38  CD2 LEU A   5     -26.142 -30.414  -4.120  0.00  0.00    +0.000 C 
ATOM     39  CD1 LEU A   5     -24.591 -30.320  -6.092  0.00  0.00    +0.000 C 
ENDBRANCH  36  37
ENDBRANCH  33  36
ENDBRANCH  31  33
ENDBRANCH  28  29
BRANCH  28  40
ATOM     40  CB  LYS A   4     -22.188 -36.435  -1.518  0.00  0.00    +0.029 C 
BRANCH  40  41
ATOM     41  CG  LYS A   4     -22.034 -36.626  -3.033  0.00  0.00    +0.000 C 
BRANCH  41  42
ATOM     42  CD  LYS A   4     -21.693 -38.079  -3.407  0.00  0.00    -0.024 C 
BRANCH  42  43
ATOM     43  CE  LYS A   4     -20.467 -38.691  -2.713  0.00  0.00    -0.086 C 
BRANCH  43  44
ATOM     44  NZ  LYS A   4     -19.255 -37.823  -2.758  0.00  0.00    +0.380 N 
ATOM     45  HZ1 LYS A   4     -18.470 -38.301  -2.271  0.00  0.00    -0.089 HD
ATOM     46  HZ2 LYS A   4     -19.459 -36.919  -2.285  0.00  0.00    -0.089 HD
ATOM     47  HZ3 LYS A   4     -18.994 -37.646  -3.749  0.00  0.00    -0.089 HD
ENDBRANCH  43  44
ENDBRANCH  42  43
ENDBRANCH  41  42
ENDBRANCH  40  41
ENDBRANCH  28  40
ENDBRANCH  26  28
ENDBRANCH   1  24
BRANCH   1  48
ATOM     48  CB  VAL A   3     -22.039 -33.050   3.288  0.00  0.00    +0.027 C 
ATOM     49  CG2 VAL A   3     -21.907 -33.173   4.819  0.00  0.00    +0.002 C 
ATOM     50  CG1 VAL A   3     -23.503 -33.238   2.840  0.00  0.00    +0.002 C 
ENDBRANCH   1  48
TORSDOF 22
REMARK  Name = ../refined-set-2016/4k9y/4k9y_pocket.pdb
REMARK  281 active torsions:
REMARK  status: ('A' for Active; 'I' for Inactive)
REMARK    1  A    between atoms: _1  and  _3
REMARK    2  A    between atoms: _3  and  _4
REMARK    3  A    between atoms: _3  and  _6
REMARK    4  A    between atoms: _6  and  _7
REMARK    5  A    between atoms: _7  and  _8
REMARK    6  A    between atoms: _8  and  _9
REMARK    7  A    between atoms: _18  and  _20
REMARK    8  A    between atoms: _20  and  _21
REMARK    9  A    between atoms: _20  and  _23
REMARK   10  A    between atoms: _23  and  _24
REMARK   11  A    between atoms: _27  and  _29
REMARK   12  A    between atoms: _29  and  _30
REMARK   13  A    between atoms: _32  and  _34
REMARK   14  A    between atoms: _34  and  _35
REMARK   15  A    between atoms: _34  and  _37
REMARK   16  A    between atoms: _37  and  _38
REMARK   17  A    between atoms: _38  and  _39
REMARK   18  A    between atoms: _42  and  _44
REMARK   19  A    between atoms: _44  and  _45
REMARK   20  A    between atoms: _44  and  _47
REMARK   21  A    between atoms: _47  and  _48
REMARK   22  A    between atoms: _54  and  _56
REMARK   23  A    between atoms: _56  and  _57
REMARK   24  A    between atoms: _56  and  _59
REMARK   25  A    between atoms: _62  and  _64
REMARK   26  A    between atoms: _64  and  _65
REMARK   27  A    between atoms: _64  and  _67
REMARK   28  A    between atoms: _67  and  _68
REMARK   29  A    between atoms: _73  and  _75
REMARK   30  A    between atoms: _75  and  _76
REMARK   31  A    between atoms: _75  and  _78
REMARK   32  A    between atoms: _78  and  _79
REMARK   33  A    between atoms: _79  and  _80
REMARK   34  A    between atoms: _85  and  _87
REMARK   35  A    between atoms: _87  and  _88
REMARK   36  A    between atoms: _91  and  _93
REMARK   37  A    between atoms: _93  and  _94
REMARK   38  A    between atoms: _93  and  _96
REMARK   39  A    between atoms: _99  and  _101
REMARK   40  A    between atoms: _101  and  _102
REMARK   41  A    between atoms: _105  and  _107
REMARK   42  A    between atoms: _107  and  _108
REMARK   43  A    between atoms: _107  and  _110
REMARK   44  A    between atoms: _110  and  _111
REMARK   45  A    between atoms: _114  and  _116
REMARK   46  A    between atoms: _116  and  _117
REMARK   47  A    between atoms: _116  and  _119
REMARK   48  A    between atoms: _119  and  _120
REMARK   49  A    between atoms: _120  and  _121
REMARK   50  A    between atoms: _121  and  _122
REMARK   51  A    between atoms: _122  and  _123
REMARK   52  A    between atoms: _127  and  _129
REMARK   53  A    between atoms: _129  and  _130
REMARK   54  A    between atoms: _129  and  _132
REMARK   55  A    between atoms: _132  and  _133
REMARK   56  A    between atoms: _133  and  _134
REMARK   57  A    between atoms: _134  and  _135
REMARK   58  A    between atoms: _135  and  _136
REMARK   59  A    between atoms: _140  and  _142
REMARK   60  A    between atoms: _142  and  _143
REMARK   61  A    between atoms: _142  and  _145
REMARK   62  A    between atoms: _145  and  _146
REMARK   63  A    between atoms: _152  and  _154
REMARK   64  A    between atoms: _154  and  _155
REMARK   65  A    between atoms: _154  and  _157
REMARK   66  A    between atoms: _157  and  _158
REMARK   67  A    between atoms: _161  and  _163
REMARK   68  A    between atoms: _163  and  _164
REMARK   69  A    between atoms: _163  and  _166
REMARK   70  A    between atoms: _166  and  _167
REMARK   71  A    between atoms: _167  and  _168
REMARK   72  A    between atoms: _173  and  _175
REMARK   73  A    between atoms: _175  and  _176
REMARK   74  A    between atoms: _175  and  _178
REMARK   75  A    between atoms: _178  and  _179
REMARK   76  A    between atoms: _179  and  _180
REMARK   77  A    between atoms: _183  and  _185
REMARK   78  A    between atoms: _185  and  _186
REMARK   79  A    between atoms: _189  and  _191
REMARK   80  A    between atoms: _191  and  _192
REMARK   81  A    between atoms: _191  and  _194
REMARK   82  A    between atoms: _194  and  _195
REMARK   83  A    between atoms: _198  and  _200
REMARK   84  A    between atoms: _200  and  _201
REMARK   85  A    between atoms: _200  and  _203
REMARK   86  A    between atoms: _203  and  _204
REMARK   87  A    between atoms: _207  and  _209
REMARK   88  A    between atoms: _209  and  _210
REMARK   89  A    between atoms: _209  and  _212
REMARK   90  A    between atoms: _212  and  _213
REMARK   91  A    between atoms: _213  and  _214
REMARK   92  A    between atoms: _216  and  _218
REMARK   93  A    between atoms: _218  and  _219
REMARK   94  A    between atoms: _218  and  _221
REMARK   95  A    between atoms: _221  and  _222
REMARK   96  A    between atoms: _222  and  _223
REMARK   97  A    between atoms: _223  and  _224
REMARK   98  A    between atoms: _233  and  _235
REMARK   99  A    between atoms: _235  and  _236
REMARK  100  A    between atoms: _235  and  _238
REMARK  101  A    between atoms: _238  and  _239
REMARK  102  A    between atoms: _239  and  _240
REMARK  103  A    between atoms: _245  and  _247
REMARK  104  A    between atoms: _247  and  _248
REMARK  105  A    between atoms: _247  and  _250
REMARK  106  A    between atoms: _250  and  _251
REMARK  107  A    between atoms: _257  and  _259
REMARK  108  A    between atoms: _259  and  _260
REMARK  109  A    between atoms: _259  and  _262
REMARK  110  A    between atoms: _262  and  _263
REMARK  111  A    between atoms: _266  and  _268
REMARK  112  A    between atoms: _268  and  _269
REMARK  113  A    between atoms: _268  and  _271
REMARK  114  A    between atoms: _271  and  _272
REMARK  115  A    between atoms: _277  and  _279
REMARK  116  A    between atoms: _279  and  _280
REMARK  117  A    between atoms: _279  and  _282
REMARK  118  A    between atoms: _282  and  _283
REMARK  119  A    between atoms: _286  and  _288
REMARK  120  A    between atoms: _288  and  _289
REMARK  121  A    between atoms: _288  and  _291
REMARK  122  A    between atoms: _294  and  _296
REMARK  123  A    between atoms: _296  and  _297
REMARK  124  A    between atoms: _296  and  _299
REMARK  125  A    between atoms: _299  and  _300
REMARK  126  A    between atoms: _300  and  _301
REMARK  127  A    between atoms: _301  and  _302
REMARK  128  A    between atoms: _302  and  _303
REMARK  129  A    between atoms: _307  and  _309
REMARK  130  A    between atoms: _309  and  _310
REMARK  131  A    between atoms: _309  and  _312
REMARK  132  A    between atoms: _312  and  _313
REMARK  133  A    between atoms: _316  and  _318
REMARK  134  A    between atoms: _318  and  _319
REMARK  135  A    between atoms: _318  and  _321
REMARK  136  A    between atoms: _321  and  _322
REMARK  137  A    between atoms: _325  and  _327
REMARK  138  A    between atoms: _327  and  _328
REMARK  139  A    between atoms: _327  and  _330
REMARK  140  A    between atoms: _330  and  _331
REMARK  141  A    between atoms: _334  and  _336
REMARK  142  A    between atoms: _336  and  _337
REMARK  143  A    between atoms: _336  and  _339
REMARK  144  A    between atoms: _339  and  _340
REMARK  145  A    between atoms: _340  and  _341
REMARK  146  A    between atoms: _343  and  _345
REMARK  147  A    between atoms: _345  and  _346
REMARK  148  A    between atoms: _345  and  _348
REMARK  149  A    between atoms: _348  and  _349
REMARK  150  A    between atoms: _349  and  _350
REMARK  151  A    between atoms: _353  and  _355
REMARK  152  A    between atoms: _355  and  _356
REMARK  153  A    between atoms: _355  and  _358
REMARK  154  A    between atoms: _358  and  _359
REMARK  155  A    between atoms: _362  and  _364
REMARK  156  A    between atoms: _364  and  _365
REMARK  157  A    between atoms: _364  and  _367
REMARK  158  A    between atoms: _369  and  _371
REMARK  159  A    between atoms: _371  and  _372
REMARK  160  A    between atoms: _371  and  _374
REMARK  161  A    between atoms: _374  and  _375
REMARK  162  A    between atoms: _378  and  _380
REMARK  163  A    between atoms: _380  and  _381
REMARK  164  A    between atoms: _380  and  _383
REMARK  165  A    between atoms: _383  and  _384
REMARK  166  A    between atoms: _387  and  _389
REMARK  167  A    between atoms: _389  and  _390
REMARK  168  A    between atoms: _392  and  _394
REMARK  169  A    between atoms: _394  and  _395
REMARK  170  A    between atoms: _394  and  _397
REMARK  171  A    between atoms: _397  and  _398
REMARK  172  A    between atoms: _398  and  _399
REMARK  173  A    between atoms: _402  and  _404
REMARK  174  A    between atoms: _404  and  _405
REMARK  175  A    between atoms: _408  and  _410
REMARK  176  A    between atoms: _410  and  _411
REMARK  177  A    between atoms: _410  and  _413
REMARK  178  A    between atoms: _413  and  _414
REMARK  179  A    between atoms: _417  and  _419
REMARK  180  A    between atoms: _419  and  _420
REMARK  181  A    between atoms: _419  and  _422
REMARK  182  A    between atoms: _422  and  _423
REMARK  183  A    between atoms: _428  and  _429
REMARK  184  A    between atoms: _431  and  _433
REMARK  185  A    between atoms: _433  and  _434
REMARK  186  A    between atoms: _433  and  _436
REMARK  187  A    between atoms: _436  and  _437
REMARK  188  A    between atoms: _440  and  _442
REMARK  189  A    between atoms: _442  and  _443
REMARK  190  A    between atoms: _442  and  _445
REMARK  191  A    between atoms: _445  and  _446
REMARK  192  A    between atoms: _452  and  _454
REMARK  193  A    between atoms: _454  and  _455
REMARK  194  A    between atoms: _454  and  _457
REMARK  195  A    between atoms: _460  and  _462
REMARK  196  A    between atoms: _462  and  _463
REMARK  197  A    between atoms: _462  and  _465
REMARK  198  A    between atoms: _465  and  _466
REMARK  199  A    between atoms: _471  and  _473
REMARK  200  A    between atoms: _473  and  _474
REMARK  201  A    between atoms: _473  and  _476
REMARK  202  A    between atoms: _476  and  _477
REMARK  203  A    between atoms: _477  and  _478
REMARK  204  A    between atoms: _478  and  _479
REMARK  205  A    between atoms: _488  and  _490
REMARK  206  A    between atoms: _490  and  _491
REMARK  207  A    between atoms: _490  and  _493
REMARK  208  A    between atoms: _493  and  _494
REMARK  209  A    between atoms: _497  and  _499
REMARK  210  A    between atoms: _499  and  _500
REMARK  211  A    between atoms: _499  and  _502
REMARK  212  A    between atoms: _502  and  _503
REMARK  213  A    between atoms: _506  and  _508
REMARK  214  A    between atoms: _508  and  _509
REMARK  215  A    between atoms: _508  and  _511
REMARK  216  A    between atoms: _511  and  _512
REMARK  217  A    between atoms: _517  and  _519
REMARK  218  A    between atoms: _519  and  _520
REMARK  219  A    between atoms: _519  and  _522
REMARK  220  A    between atoms: _525  and  _527
REMARK  221  A    between atoms: _527  and  _528
REMARK  222  A    between atoms: _527  and  _530
REMARK  223  A    between atoms: _530  and  _531
REMARK  224  A    between atoms: _534  and  _536
REMARK  225  A    between atoms: _536  and  _537
REMARK  226  A    between atoms: _536  and  _539
REMARK  227  A    between atoms: _542  and  _544
REMARK  228  A    between atoms: _544  and  _545
REMARK  229  A    between atoms: _544  and  _547
REMARK  230  A    between atoms: _547  and  _548
REMARK  231  A    between atoms: _550  and  _552
REMARK  232  A    between atoms: _552  and  _553
REMARK  233  A    between atoms: _552  and  _555
REMARK  234  A    between atoms: _555  and  _556
REMARK  235  A    between atoms: _556  and  _557
REMARK  236  A    between atoms: _557  and  _558
REMARK  237  A    between atoms: _558  and  _559
REMARK  238  A    between atoms: _563  and  _565
REMARK  239  A    between atoms: _565  and  _566
REMARK  240  A    between atoms: _565  and  _568
REMARK  241  A    between atoms: _568  and  _569
REMARK  242  A    between atoms: _572  and  _574
REMARK  243  A    between atoms: _574  and  _575
REMARK  244  A    between atoms: _577  and  _579
REMARK  245  A    between atoms: _579  and  _580
REMARK  246  A    between atoms: _579  and  _582
REMARK  247  A    between atoms: _582  and  _583
REMARK  248  A    between atoms: _586  and  _588
REMARK  249  A    between atoms: _588  and  _589
REMARK  250  A    between atoms: _588  and  _591
REMARK  251  A    between atoms: _591  and  _592
REMARK  252  A    between atoms: _598  and  _600
REMARK  253  A    between atoms: _600  and  _601
REMARK  254  A    between atoms: _603  and  _605
REMARK  255  A    between atoms: _605  and  _606
REMARK  256  A    between atoms: _605  and  _608
REMARK  257  A    between atoms: _608  and  _609
REMARK  258  A    between atoms: _612  and  _614
REMARK  259  A    between atoms: _614  and  _615
REMARK  260  A    between atoms: _614  and  _617
REMARK  261  A    between atoms: _617  and  _618
REMARK  262  A    between atoms: _620  and  _622
REMARK  263  A    between atoms: _622  and  _623
REMARK  264  A    between atoms: _622  and  _625
REMARK  265  A    between atoms: _625  and  _626
REMARK  266  A    between atoms: _626  and  _627
REMARK  267  A    between atoms: _627  and  _628
REMARK  268  A    between atoms: _637  and  _639
REMARK  269  A    between atoms: _639  and  _640
REMARK  270  A    between atoms: _639  and  _642
REMARK  271  A    between atoms: _642  and  _643
REMARK  272  A    between atoms: _648  and  _649
REMARK  273  A    between atoms: _651  and  _653
REMARK  274  A    between atoms: _653  and  _654
REMARK  275  A    between atoms: _653  and  _656
REMARK  276  A    between atoms: _656  and  _657
REMARK  277  A    between atoms: _657  and  _658
REMARK  278  A    between atoms: _660  and  _662
REMARK  279  A    between atoms: _662  and  _663
REMARK  280  A    between atoms: _662  and  _665
REMARK  281  A    between atoms: _665  and  _666
REMARK                            x       y       z     vdW  Elec       q    Type
REMARK                         _______ _______ _______ _____ _____    ______ ____
ROOT
ATOM      1  CA  LEU A   5     -28.393 -37.064   5.002  0.00  0.00    +0.149 C 
ENDROOT
BRANCH   1   3
ATOM      2  C   GLU A   4     -27.200 -36.418   3.023  0.00  0.00    +0.241 C 
ATOM      3  N   LEU A   5     -28.027 -37.257   3.606  0.00  0.00    -0.297 N 
ATOM      4  H   LEU A   5     -28.419 -38.058   3.071  0.00  0.00    +0.150 HD
ATOM      5  O   GLU A   4     -26.812 -35.392   3.566  0.00  0.00    -0.273 OA
BRANCH   2   6
ATOM      6  CA  GLU A   4     -26.813 -36.733   1.556  0.00  0.00    +0.149 C 
BRANCH   6   9
ATOM      7  C   MET A   3     -27.787 -34.784   0.522  0.00  0.00    +0.241 C 
ATOM      8  O   MET A   3     -28.889 -35.084   0.942  0.00  0.00    -0.273 OA
ATOM      9  N   GLU A   4     -26.692 -35.504   0.783  0.00  0.00    -0.297 N 
ATOM     10  H   GLU A   4     -25.763 -35.190   0.438  0.00  0.00    +0.150 HD
BRANCH   7  11
ATOM     11  CA  MET A   3     -27.611 -33.474  -0.199  0.00  0.00    +0.149 C 
BRANCH  11  13
ATOM     12  C   ILE A   2     -29.184 -32.738  -1.961  0.00  0.00    +0.241 C 
ATOM     13  N   MET A   3     -28.921 -32.986  -0.672  0.00  0.00    -0.297 N 
ATOM     14  H   MET A   3     -29.674 -32.828   0.028  0.00  0.00    +0.150 HD
ATOM     15  O   ILE A   2     -28.362 -32.863  -2.867  0.00  0.00    -0.273 OA
BRANCH  12  16
ATOM     16  CA  ILE A   2     -30.571 -32.268  -2.296  0.00  0.00    +0.148 C 
BRANCH  16  19
ATOM     17  C   ILE A   1     -31.032 -29.872  -2.291  0.00  0.00    +0.238 C 
ATOM     18  O   ILE A   1     -31.532 -29.928  -1.173  0.00  0.00    -0.274 OA
ATOM     19  N   ILE A   2     -30.515 -30.932  -2.910  0.00  0.00    -0.297 N 
ATOM     20  H   ILE A   2     -30.065 -30.814  -3.840  0.00  0.00    +0.150 HD
BRANCH  17  21
ATOM     21  CA  ILE A   1     -30.999 -28.546  -3.029  0.00  0.00    +0.145 C 
BRANCH  21  22
ATOM     22  CB  ILE A   1     -29.937 -27.608  -2.452  0.00  0.00    +0.025 C 
ATOM     23  CG2 ILE A   1     -28.568 -28.382  -2.373  0.00  0.00    +0.002 C 
BRANCH  22  24
ATOM     24  CG1 ILE A   1     -29.845 -26.340  -3.345  0.00  0.00    +0.002 C 
ATOM     25  CD1 ILE A   1     -28.943 -25.210  -2.767  0.00  0.00    +0.000 C 
ENDBRANCH  22  24
ENDBRANCH  21  22
BRANCH  21  26
ATOM     26  N   ILE A   1     -32.371 -28.029  -2.952  0.00  0.00    -0.238 NA
ATOM     27  H   ILE A   1     -32.732 -27.724  -2.026  0.00  0.00    +0.142 HD
ENDBRANCH  21  26
ENDBRANCH  17  21
ENDBRANCH  16  19
BRANCH  16  28
ATOM     28  CB  ILE A   2     -31.296 -33.272  -3.222  0.00  0.00    +0.027 C 
ATOM     29  CG2 ILE A   2     -31.521 -34.617  -2.502  0.00  0.00    +0.002 C 
BRANCH  28  30
ATOM     30  CG1 ILE A   2     -32.628 -32.675  -3.841  0.00  0.00    +0.002 C 
ATOM     31  CD1 ILE A   2     -33.767 -32.483  -2.948  0.00  0.00    +0.000 C 
ENDBRANCH  28  30
ENDBRANCH  16  28
ENDBRANCH  12  16
ENDBRANCH  11  13
BRANCH  11  32
ATOM     32  CB  MET A   3     -26.957 -32.467   0.768  0.00  0.00    +0.041 C 
BRANCH  32  33
ATOM     33  CG  MET A   3     -26.646 -31.159   0.093  0.00  0.00    +0.060 C 
BRANCH  33  34
ATOM     34  SD  MET A   3     -27.344 -29.713   0.917  0.00  0.00    -0.139 S 
ATOM     35  CE  MET A   3     -28.832 -30.329   1.492  0.00  0.00    +0.069 C 
ENDBRANCH  33  34
ENDBRANCH  32  33
ENDBRANCH  11  32
ENDBRANCH   7  11
ENDBRANCH   6   9
BRANCH   6  36
ATOM     36  CB  GLU A   4     -25.537 -37.592   1.480  0.00  0.00    +0.041 C 
BRANCH  36  37
ATOM     37  CG  GLU A   4     -24.382 -37.055   2.303  0.00  0.00    +0.116 C 
BRANCH  37  38
ATOM     38  CD  GLU A   4     -23.124 -37.897   2.223  0.00  0.00    +0.365 C 
ATOM     39  OE2 GLU A   4     -23.141 -39.053   2.704  0.00  0.00    -0.246 OA
ATOM     40  OE1 GLU A   4     -22.102 -37.376   1.724  0.00  0.00    -0.246 OA
ENDBRANCH  37  38
ENDBRANCH  36  37
ENDBRANCH   6  36
ENDBRANCH   2   6
ENDBRANCH   1   3
BRANCH   1  41
ATOM     41  C   LEU A   5     -27.350 -37.763   5.899  0.00  0.00    +0.241 C 
ATOM     42  N   CYS A   6     -26.928 -37.065   6.972  0.00  0.00    -0.296 N 
ATOM     43  H   CYS A   6     -27.233 -36.075   7.063  0.00  0.00    +0.150 HD
ATOM     44  O   LEU A   5     -26.955 -38.905   5.627  0.00  0.00    -0.273 OA
BRANCH  42  45
ATOM     45  CA  CYS A   6     -26.067 -37.619   8.015  0.00  0.00    +0.160 C 
BRANCH  45  46
ATOM     46  C   CYS A   6     -27.030 -37.833   9.180  0.00  0.00    +0.242 C 
ATOM     47  O   CYS A   6     -27.404 -36.883   9.869  0.00  0.00    -0.273 OA
ATOM     48  N   THR A   7     -27.525 -39.082   9.301  0.00  0.00    -0.295 N 
ATOM     49  H   THR A   7     -27.098 -39.830   8.718  0.00  0.00    +0.150 HD
BRANCH  48  50
ATOM     50  CA  THR A   7     -28.620 -39.457  10.195  0.00  0.00    +0.176 C 
BRANCH  50  51
ATOM     51  C   THR A   7     -28.364 -39.190  11.649  0.00  0.00    +0.243 C 
ATOM     52  O   THR A   7     -29.335 -38.921  12.351  0.00  0.00    -0.273 OA
ATOM     53  N   LEU A   8     -27.094 -39.241  12.113  0.00  0.00    -0.297 N 
ATOM     54  H   LEU A   8     -26.303 -39.429  11.464  0.00  0.00    +0.150 HD
BRANCH  53  55
ATOM     55  CA  LEU A   8     -26.847 -39.028  13.540  0.00  0.00    +0.149 C 
BRANCH  55  56
ATOM     56  C   LEU A   8     -26.657 -37.564  13.941  0.00  0.00    +0.241 C 
ATOM     57  O   LEU A   8     -26.513 -37.285  15.128  0.00  0.00    -0.273 OA
ATOM     58  N   GLY A   9     -26.722 -36.645  12.980  0.00  0.00    -0.295 N 
ATOM     59  H   GLY A   9     -26.803 -36.962  11.993  0.00  0.00    +0.150 HD
BRANCH  58  60
ATOM     60  CA  GLY A   9     -26.684 -35.212  13.252  0.00  0.00    +0.176 C 
BRANCH  60  61
ATOM     61  C   GLY A   9     -25.341 -34.581  13.576  0.00  0.00    +0.243 C 
ATOM     62  N   GLU A  10     -25.400 -33.450  14.277  0.00  0.00    -0.298 N 
ATOM     63  H   GLU A  10     -26.334 -33.115  14.589  0.00  0.00    +0.150 HD
ATOM     64  O   GLY A   9     -24.279 -35.071  13.177  0.00  0.00    -0.273 OA
BRANCH  62  65
ATOM     65  CA  GLU A  10     -24.216 -32.643  14.638  0.00  0.00    +0.137 C 
BRANCH  65  66
ATOM     66  C   GLU A  10     -23.233 -33.408  15.495  0.00  0.00    +0.227 C 
ATOM     67  O   GLU A  10     -23.639 -34.121  16.427  0.00  0.00    -0.286 OA
ENDBRANCH  65  66
BRANCH  65  68
ATOM     68  CB  GLU A  10     -24.658 -31.382  15.372  0.00  0.00    +0.039 C 
BRANCH  68  69
ATOM     69  CG  GLU A  10     -25.435 -30.414  14.484  0.00  0.00    +0.116 C 
BRANCH  69  70
ATOM     70  CD  GLU A  10     -26.357 -29.425  15.183  0.00  0.00    +0.365 C 
ATOM     71  OE2 GLU A  10     -26.386 -29.391  16.436  0.00  0.00    -0.246 OA
ATOM     72  OE1 GLU A  10     -27.068 -28.687  14.463  0.00  0.00    -0.246 OA
ENDBRANCH  69  70
ENDBRANCH  68  69
ENDBRANCH  65  68
ENDBRANCH  62  65
ENDBRANCH  60  61
ENDBRANCH  58  60
ENDBRANCH  55  56
BRANCH  55  73
ATOM     73  CB  LEU A   8     -25.706 -39.913  14.063  0.00  0.00    +0.029 C 
BRANCH  73  74
ATOM     74  CG  LEU A   8     -25.952 -41.416  13.934  0.00  0.00    +0.002 C 
ATOM     75  CD2 LEU A   8     -24.851 -42.208  14.600  0.00  0.00    +0.000 C 
ATOM     76  CD1 LEU A   8     -27.289 -41.820  14.553  0.00  0.00    +0.000 C 
ENDBRANCH  73  74
ENDBRANCH  55  73
ENDBRANCH  53  55
ENDBRANCH  50  51
BRANCH  50  77
ATOM     77  CB  THR A   7     -29.090 -40.931   9.999  0.00  0.00    +0.137 C 
ATOM     78  CG2 THR A   7     -29.694 -41.170   8.635  0.00  0.00    +0.034 C 
BRANCH  77  79
ATOM     79  OG1 THR A   7     -27.988 -41.822  10.189  0.00  0.00    -0.382 OA
ATOM     80  HG1 THR A   7     -27.279 -41.614   9.530  0.00  0.00    +0.210 HD
ENDBRANCH  77  79
ENDBRANCH  50  77
ENDBRANCH  48  50
ENDBRANCH  45  46
BRANCH  45  81
ATOM     81  CB  CYS A   6     -24.939 -36.653   8.351  0.00  0.00    +0.098 C 
ATOM     82  SG  CYS A   6     -23.803 -36.379   6.972  0.00  0.00    -0.080 S 
ENDBRANCH  45  81
ENDBRANCH  42  45
ENDBRANCH   1  41
BRANCH   1  83
ATOM     83  CB  LEU A   5     -29.782 -37.646   5.285  0.00  0.00    +0.029 C 
BRANCH  83  84
ATOM     84  CG  LEU A   5     -30.333 -37.419   6.707  0.00  0.00    +0.002 C 
ATOM     85  CD2 LEU A   5     -31.506 -38.372   6.994  0.00  0.00    +0.000 C 
ATOM     86  CD1 LEU A   5     -30.835 -35.997   6.880  0.00  0.00    +0.000 C 
ENDBRANCH  83  84
ENDBRANCH   1  83
TORSDOF 40
REMARK  Name = ../refined-set-2016/4k9y/4k9y_pocket.pdb
REMARK  281 active torsions:
REMARK  status: ('A' for Active; 'I' for Inactive)
REMARK    1  A    between atoms: _1  and  _3
REMARK    2  A    between atoms: _3  and  _4
REMARK    3  A    between atoms: _3  and  _6
REMARK    4  A    between atoms: _6  and  _7
REMARK    5  A    between atoms: _7  and  _8
REMARK    6  A    between atoms: _8  and  _9
REMARK    7  A    between atoms: _18  and  _20
REMARK    8  A    between atoms: _20  and  _21
REMARK    9  A    between atoms: _20  and  _23
REMARK   10  A    between atoms: _23  and  _24
REMARK   11  A    between atoms: _27  and  _29
REMARK   12  A    between atoms: _29  and  _30
REMARK   13  A    between atoms: _32  and  _34
REMARK   14  A    between atoms: _34  and  _35
REMARK   15  A    between atoms: _34  and  _37
REMARK   16  A    between atoms: _37  and  _38
REMARK   17  A    between atoms: _38  and  _39
REMARK   18  A    between atoms: _42  and  _44
REMARK   19  A    between atoms: _44  and  _45
REMARK   20  A    between atoms: _44  and  _47
REMARK   21  A    between atoms: _47  and  _48
REMARK   22  A    between atoms: _54  and  _56
REMARK   23  A    between atoms: _56  and  _57
REMARK   24  A    between atoms: _56  and  _59
REMARK   25  A    between atoms: _62  and  _64
REMARK   26  A    between atoms: _64  and  _65
REMARK   27  A    between atoms: _64  and  _67
REMARK   28  A    between atoms: _67  and  _68
REMARK   29  A    between atoms: _73  and  _75
REMARK   30  A    between atoms: _75  and  _76
REMARK   31  A    between atoms: _75  and  _78
REMARK   32  A    between atoms: _78  and  _79
REMARK   33  A    between atoms: _79  and  _80
REMARK   34  A    between atoms: _85  and  _87
REMARK   35  A    between atoms: _87  and  _88
REMARK   36  A    between atoms: _91  and  _93
REMARK   37  A    between atoms: _93  and  _94
REMARK   38  A    between atoms: _93  and  _96
REMARK   39  A    between atoms: _99  and  _101
REMARK   40  A    between atoms: _101  and  _102
REMARK   41  A    between atoms: _105  and  _107
REMARK   42  A    between atoms: _107  and  _108
REMARK   43  A    between atoms: _107  and  _110
REMARK   44  A    between atoms: _110  and  _111
REMARK   45  A    between atoms: _114  and  _116
REMARK   46  A    between atoms: _116  and  _117
REMARK   47  A    between atoms: _116  and  _119
REMARK   48  A    between atoms: _119  and  _120
REMARK   49  A    between atoms: _120  and  _121
REMARK   50  A    between atoms: _121  and  _122
REMARK   51  A    between atoms: _122  and  _123
REMARK   52  A    between atoms: _127  and  _129
REMARK   53  A    between atoms: _129  and  _130
REMARK   54  A    between atoms: _129  and  _132
REMARK   55  A    between atoms: _132  and  _133
REMARK   56  A    between atoms: _133  and  _134
REMARK   57  A    between atoms: _134  and  _135
REMARK   58  A    between atoms: _135  and  _136
REMARK   59  A    between atoms: _140  and  _142
REMARK   60  A    between atoms: _142  and  _143
REMARK   61  A    between atoms: _142  and  _145
REMARK   62  A    between atoms: _145  and  _146
REMARK   63  A    between atoms: _152  and  _154
REMARK   64  A    between atoms: _154  and  _155
REMARK   65  A    between atoms: _154  and  _157
REMARK   66  A    between atoms: _157  and  _158
REMARK   67  A    between atoms: _161  and  _163
REMARK   68  A    between atoms: _163  and  _164
REMARK   69  A    between atoms: _163  and  _166
REMARK   70  A    between atoms: _166  and  _167
REMARK   71  A    between atoms: _167  and  _168
REMARK   72  A    between atoms: _173  and  _175
REMARK   73  A    between atoms: _175  and  _176
REMARK   74  A    between atoms: _175  and  _178
REMARK   75  A    between atoms: _178  and  _179
REMARK   76  A    between atoms: _179  and  _180
REMARK   77  A    between atoms: _183  and  _185
REMARK   78  A    between atoms: _185  and  _186
REMARK   79  A    between atoms: _189  and  _191
REMARK   80  A    between atoms: _191  and  _192
REMARK   81  A    between atoms: _191  and  _194
REMARK   82  A    between atoms: _194  and  _195
REMARK   83  A    between atoms: _198  and  _200
REMARK   84  A    between atoms: _200  and  _201
REMARK   85  A    between atoms: _200  and  _203
REMARK   86  A    between atoms: _203  and  _204
REMARK   87  A    between atoms: _207  and  _209
REMARK   88  A    between atoms: _209  and  _210
REMARK   89  A    between atoms: _209  and  _212
REMARK   90  A    between atoms: _212  and  _213
REMARK   91  A    between atoms: _213  and  _214
REMARK   92  A    between atoms: _216  and  _218
REMARK   93  A    between atoms: _218  and  _219
REMARK   94  A    between atoms: _218  and  _221
REMARK   95  A    between atoms: _221  and  _222
REMARK   96  A    between atoms: _222  and  _223
REMARK   97  A    between atoms: _223  and  _224
REMARK   98  A    between atoms: _233  and  _235
REMARK   99  A    between atoms: _235  and  _236
REMARK  100  A    between atoms: _235  and  _238
REMARK  101  A    between atoms: _238  and  _239
REMARK  102  A    between atoms: _239  and  _240
REMARK  103  A    between atoms: _245  and  _247
REMARK  104  A    between atoms: _247  and  _248
REMARK  105  A    between atoms: _247  and  _250
REMARK  106  A    between atoms: _250  and  _251
REMARK  107  A    between atoms: _257  and  _259
REMARK  108  A    between atoms: _259  and  _260
REMARK  109  A    between atoms: _259  and  _262
REMARK  110  A    between atoms: _262  and  _263
REMARK  111  A    between atoms: _266  and  _268
REMARK  112  A    between atoms: _268  and  _269
REMARK  113  A    between atoms: _268  and  _271
REMARK  114  A    between atoms: _271  and  _272
REMARK  115  A    between atoms: _277  and  _279
REMARK  116  A    between atoms: _279  and  _280
REMARK  117  A    between atoms: _279  and  _282
REMARK  118  A    between atoms: _282  and  _283
REMARK  119  A    between atoms: _286  and  _288
REMARK  120  A    between atoms: _288  and  _289
REMARK  121  A    between atoms: _288  and  _291
REMARK  122  A    between atoms: _294  and  _296
REMARK  123  A    between atoms: _296  and  _297
REMARK  124  A    between atoms: _296  and  _299
REMARK  125  A    between atoms: _299  and  _300
REMARK  126  A    between atoms: _300  and  _301
REMARK  127  A    between atoms: _301  and  _302
REMARK  128  A    between atoms: _302  and  _303
REMARK  129  A    between atoms: _307  and  _309
REMARK  130  A    between atoms: _309  and  _310
REMARK  131  A    between atoms: _309  and  _312
REMARK  132  A    between atoms: _312  and  _313
REMARK  133  A    between atoms: _316  and  _318
REMARK  134  A    between atoms: _318  and  _319
REMARK  135  A    between atoms: _318  and  _321
REMARK  136  A    between atoms: _321  and  _322
REMARK  137  A    between atoms: _325  and  _327
REMARK  138  A    between atoms: _327  and  _328
REMARK  139  A    between atoms: _327  and  _330
REMARK  140  A    between atoms: _330  and  _331
REMARK  141  A    between atoms: _334  and  _336
REMARK  142  A    between atoms: _336  and  _337
REMARK  143  A    between atoms: _336  and  _339
REMARK  144  A    between atoms: _339  and  _340
REMARK  145  A    between atoms: _340  and  _341
REMARK  146  A    between atoms: _343  and  _345
REMARK  147  A    between atoms: _345  and  _346
REMARK  148  A    between atoms: _345  and  _348
REMARK  149  A    between atoms: _348  and  _349
REMARK  150  A    between atoms: _349  and  _350
REMARK  151  A    between atoms: _353  and  _355
REMARK  152  A    between atoms: _355  and  _356
REMARK  153  A    between atoms: _355  and  _358
REMARK  154  A    between atoms: _358  and  _359
REMARK  155  A    between atoms: _362  and  _364
REMARK  156  A    between atoms: _364  and  _365
REMARK  157  A    between atoms: _364  and  _367
REMARK  158  A    between atoms: _369  and  _371
REMARK  159  A    between atoms: _371  and  _372
REMARK  160  A    between atoms: _371  and  _374
REMARK  161  A    between atoms: _374  and  _375
REMARK  162  A    between atoms: _378  and  _380
REMARK  163  A    between atoms: _380  and  _381
REMARK  164  A    between atoms: _380  and  _383
REMARK  165  A    between atoms: _383  and  _384
REMARK  166  A    between atoms: _387  and  _389
REMARK  167  A    between atoms: _389  and  _390
REMARK  168  A    between atoms: _392  and  _394
REMARK  169  A    between atoms: _394  and  _395
REMARK  170  A    between atoms: _394  and  _397
REMARK  171  A    between atoms: _397  and  _398
REMARK  172  A    between atoms: _398  and  _399
REMARK  173  A    between atoms: _402  and  _404
REMARK  174  A    between atoms: _404  and  _405
REMARK  175  A    between atoms: _408  and  _410
REMARK  176  A    between atoms: _410  and  _411
REMARK  177  A    between atoms: _410  and  _413
REMARK  178  A    between atoms: _413  and  _414
REMARK  179  A    between atoms: _417  and  _419
REMARK  180  A    between atoms: _419  and  _420
REMARK  181  A    between atoms: _419  and  _422
REMARK  182  A    between atoms: _422  and  _423
REMARK  183  A    between atoms: _428  and  _429
REMARK  184  A    between atoms: _431  and  _433
REMARK  185  A    between atoms: _433  and  _434
REMARK  186  A    between atoms: _433  and  _436
REMARK  187  A    between atoms: _436  and  _437
REMARK  188  A    between atoms: _440  and  _442
REMARK  189  A    between atoms: _442  and  _443
REMARK  190  A    between atoms: _442  and  _445
REMARK  191  A    between atoms: _445  and  _446
REMARK  192  A    between atoms: _452  and  _454
REMARK  193  A    between atoms: _454  and  _455
REMARK  194  A    between atoms: _454  and  _457
REMARK  195  A    between atoms: _460  and  _462
REMARK  196  A    between atoms: _462  and  _463
REMARK  197  A    between atoms: _462  and  _465
REMARK  198  A    between atoms: _465  and  _466
REMARK  199  A    between atoms: _471  and  _473
REMARK  200  A    between atoms: _473  and  _474
REMARK  201  A    between atoms: _473  and  _476
REMARK  202  A    between atoms: _476  and  _477
REMARK  203  A    between atoms: _477  and  _478
REMARK  204  A    between atoms: _478  and  _479
REMARK  205  A    between atoms: _488  and  _490
REMARK  206  A    between atoms: _490  and  _491
REMARK  207  A    between atoms: _490  and  _493
REMARK  208  A    between atoms: _493  and  _494
REMARK  209  A    between atoms: _497  and  _499
REMARK  210  A    between atoms: _499  and  _500
REMARK  211  A    between atoms: _499  and  _502
REMARK  212  A    between atoms: _502  and  _503
REMARK  213  A    between atoms: _506  and  _508
REMARK  214  A    between atoms: _508  and  _509
REMARK  215  A    between atoms: _508  and  _511
REMARK  216  A    between atoms: _511  and  _512
REMARK  217  A    between atoms: _517  and  _519
REMARK  218  A    between atoms: _519  and  _520
REMARK  219  A    between atoms: _519  and  _522
REMARK  220  A    between atoms: _525  and  _527
REMARK  221  A    between atoms: _527  and  _528
REMARK  222  A    between atoms: _527  and  _530
REMARK  223  A    between atoms: _530  and  _531
REMARK  224  A    between atoms: _534  and  _536
REMARK  225  A    between atoms: _536  and  _537
REMARK  226  A    between atoms: _536  and  _539
REMARK  227  A    between atoms: _542  and  _544
REMARK  228  A    between atoms: _544  and  _545
REMARK  229  A    between atoms: _544  and  _547
REMARK  230  A    between atoms: _547  and  _548
REMARK  231  A    between atoms: _550  and  _552
REMARK  232  A    between atoms: _552  and  _553
REMARK  233  A    between atoms: _552  and  _555
REMARK  234  A    between atoms: _555  and  _556
REMARK  235  A    between atoms: _556  and  _557
REMARK  236  A    between atoms: _557  and  _558
REMARK  237  A    between atoms: _558  and  _559
REMARK  238  A    between atoms: _563  and  _565
REMARK  239  A    between atoms: _565  and  _566
REMARK  240  A    between atoms: _565  and  _568
REMARK  241  A    between atoms: _568  and  _569
REMARK  242  A    between atoms: _572  and  _574
REMARK  243  A    between atoms: _574  and  _575
REMARK  244  A    between atoms: _577  and  _579
REMARK  245  A    between atoms: _579  and  _580
REMARK  246  A    between atoms: _579  and  _582
REMARK  247  A    between atoms: _582  and  _583
REMARK  248  A    between atoms: _586  and  _588
REMARK  249  A    between atoms: _588  and  _589
REMARK  250  A    between atoms: _588  and  _591
REMARK  251  A    between atoms: _591  and  _592
REMARK  252  A    between atoms: _598  and  _600
REMARK  253  A    between atoms: _600  and  _601
REMARK  254  A    between atoms: _603  and  _605
REMARK  255  A    between atoms: _605  and  _606
REMARK  256  A    between atoms: _605  and  _608
REMARK  257  A    between atoms: _608  and  _609
REMARK  258  A    between atoms: _612  and  _614
REMARK  259  A    between atoms: _614  and  _615
REMARK  260  A    between atoms: _614  and  _617
REMARK  261  A    between atoms: _617  and  _618
REMARK  262  A    between atoms: _620  and  _622
REMARK  263  A    between atoms: _622  and  _623
REMARK  264  A    between atoms: _622  and  _625
REMARK  265  A    between atoms: _625  and  _626
REMARK  266  A    between atoms: _626  and  _627
REMARK  267  A    between atoms: _627  and  _628
REMARK  268  A    between atoms: _637  and  _639
REMARK  269  A    between atoms: _639  and  _640
REMARK  270  A    between atoms: _639  and  _642
REMARK  271  A    between atoms: _642  and  _643
REMARK  272  A    between atoms: _648  and  _649
REMARK  273  A    between atoms: _651  and  _653
REMARK  274  A    between atoms: _653  and  _654
REMARK  275  A    between atoms: _653  and  _656
REMARK  276  A    between atoms: _656  and  _657
REMARK  277  A    between atoms: _657  and  _658
REMARK  278  A    between atoms: _660  and  _662
REMARK  279  A    between atoms: _662  and  _663
REMARK  280  A    between atoms: _662  and  _665
REMARK  281  A    between atoms: _665  and  _666
REMARK                            x       y       z     vdW  Elec       q    Type
REMARK                         _______ _______ _______ _____ _____    ______ ____
ROOT
ATOM      1  C   ALA A   1     -10.619 -33.510   3.622  0.00  0.00    +0.238 C 
ATOM      2  N   LEU A   2      -9.782 -33.115   4.607  0.00  0.00    -0.298 N 
ATOM      3  H   LEU A   2      -9.696 -33.702   5.461  0.00  0.00    +0.150 HD
ATOM      4  O   ALA A   1     -10.712 -32.931   2.528  0.00  0.00    -0.274 OA
ENDROOT
BRANCH   1   5
ATOM      5  CA  ALA A   1     -11.410 -34.805   3.885  0.00  0.00    +0.145 C 
ATOM      6  CB  ALA A   1     -12.619 -34.508   4.762  0.00  0.00    +0.028 C 
BRANCH   5   7
ATOM      7  N   ALA A   1     -10.538 -35.779   4.567  0.00  0.00    -0.238 NA
ATOM      8  H   ALA A   1     -10.796 -36.092   5.525  0.00  0.00    +0.142 HD
ENDBRANCH   5   7
ENDBRANCH   1   5
BRANCH   2   9
ATOM      9  CA  LEU A   2      -8.992 -31.886   4.509  0.00  0.00    +0.137 C 
BRANCH   9  10
ATOM     10  C   LEU A   2      -7.792 -32.034   3.625  0.00  0.00    +0.227 C 
ATOM     11  O   LEU A   2      -7.455 -31.076   2.939  0.00  0.00    -0.286 OA
ENDBRANCH   9  10
BRANCH   9  12
ATOM     12  CB  LEU A   2      -8.630 -31.359   5.900  0.00  0.00    +0.028 C 
BRANCH  12  13
ATOM     13  CG  LEU A   2      -9.865 -30.847   6.654  0.00  0.00    +0.002 C 
ATOM     14  CD2 LEU A   2      -9.547 -30.627   8.097  0.00  0.00    +0.000 C 
ATOM     15  CD1 LEU A   2     -10.386 -29.560   6.022  0.00  0.00    +0.000 C 
ENDBRANCH  12  13
ENDBRANCH   9  12
ENDBRANCH   2   9
TORSDOF 6
REMARK  Name = ../refined-set-2016/4k9y/4k9y_pocket.pdb
REMARK  281 active torsions:
REMARK  status: ('A' for Active; 'I' for Inactive)
REMARK    1  A    between atoms: _1  and  _3
REMARK    2  A    between atoms: _3  and  _4
REMARK    3  A    between atoms: _3  and  _6
REMARK    4  A    between atoms: _6  and  _7
REMARK    5  A    between atoms: _7  and  _8
REMARK    6  A    between atoms: _8  and  _9
REMARK    7  A    between atoms: _18  and  _20
REMARK    8  A    between atoms: _20  and  _21
REMARK    9  A    between atoms: _20  and  _23
REMARK   10  A    between atoms: _23  and  _24
REMARK   11  A    between atoms: _27  and  _29
REMARK   12  A    between atoms: _29  and  _30
REMARK   13  A    between atoms: _32  and  _34
REMARK   14  A    between atoms: _34  and  _35
REMARK   15  A    between atoms: _34  and  _37
REMARK   16  A    between atoms: _37  and  _38
REMARK   17  A    between atoms: _38  and  _39
REMARK   18  A    between atoms: _42  and  _44
REMARK   19  A    between atoms: _44  and  _45
REMARK   20  A    between atoms: _44  and  _47
REMARK   21  A    between atoms: _47  and  _48
REMARK   22  A    between atoms: _54  and  _56
REMARK   23  A    between atoms: _56  and  _57
REMARK   24  A    between atoms: _56  and  _59
REMARK   25  A    between atoms: _62  and  _64
REMARK   26  A    between atoms: _64  and  _65
REMARK   27  A    between atoms: _64  and  _67
REMARK   28  A    between atoms: _67  and  _68
REMARK   29  A    between atoms: _73  and  _75
REMARK   30  A    between atoms: _75  and  _76
REMARK   31  A    between atoms: _75  and  _78
REMARK   32  A    between atoms: _78  and  _79
REMARK   33  A    between atoms: _79  and  _80
REMARK   34  A    between atoms: _85  and  _87
REMARK   35  A    between atoms: _87  and  _88
REMARK   36  A    between atoms: _91  and  _93
REMARK   37  A    between atoms: _93  and  _94
REMARK   38  A    between atoms: _93  and  _96
REMARK   39  A    between atoms: _99  and  _101
REMARK   40  A    between atoms: _101  and  _102
REMARK   41  A    between atoms: _105  and  _107
REMARK   42  A    between atoms: _107  and  _108
REMARK   43  A    between atoms: _107  and  _110
REMARK   44  A    between atoms: _110  and  _111
REMARK   45  A    between atoms: _114  and  _116
REMARK   46  A    between atoms: _116  and  _117
REMARK   47  A    between atoms: _116  and  _119
REMARK   48  A    between atoms: _119  and  _120
REMARK   49  A    between atoms: _120  and  _121
REMARK   50  A    between atoms: _121  and  _122
REMARK   51  A    between atoms: _122  and  _123
REMARK   52  A    between atoms: _127  and  _129
REMARK   53  A    between atoms: _129  and  _130
REMARK   54  A    between atoms: _129  and  _132
REMARK   55  A    between atoms: _132  and  _133
REMARK   56  A    between atoms: _133  and  _134
REMARK   57  A    between atoms: _134  and  _135
REMARK   58  A    between atoms: _135  and  _136
REMARK   59  A    between atoms: _140  and  _142
REMARK   60  A    between atoms: _142  and  _143
REMARK   61  A    between atoms: _142  and  _145
REMARK   62  A    between atoms: _145  and  _146
REMARK   63  A    between atoms: _152  and  _154
REMARK   64  A    between atoms: _154  and  _155
REMARK   65  A    between atoms: _154  and  _157
REMARK   66  A    between atoms: _157  and  _158
REMARK   67  A    between atoms: _161  and  _163
REMARK   68  A    between atoms: _163  and  _164
REMARK   69  A    between atoms: _163  and  _166
REMARK   70  A    between atoms: _166  and  _167
REMARK   71  A    between atoms: _167  and  _168
REMARK   72  A    between atoms: _173  and  _175
REMARK   73  A    between atoms: _175  and  _176
REMARK   74  A    between atoms: _175  and  _178
REMARK   75  A    between atoms: _178  and  _179
REMARK   76  A    between atoms: _179  and  _180
REMARK   77  A    between atoms: _183  and  _185
REMARK   78  A    between atoms: _185  and  _186
REMARK   79  A    between atoms: _189  and  _191
REMARK   80  A    between atoms: _191  and  _192
REMARK   81  A    between atoms: _191  and  _194
REMARK   82  A    between atoms: _194  and  _195
REMARK   83  A    between atoms: _198  and  _200
REMARK   84  A    between atoms: _200  and  _201
REMARK   85  A    between atoms: _200  and  _203
REMARK   86  A    between atoms: _203  and  _204
REMARK   87  A    between atoms: _207  and  _209
REMARK   88  A    between atoms: _209  and  _210
REMARK   89  A    between atoms: _209  and  _212
REMARK   90  A    between atoms: _212  and  _213
REMARK   91  A    between atoms: _213  and  _214
REMARK   92  A    between atoms: _216  and  _218
REMARK   93  A    between atoms: _218  and  _219
REMARK   94  A    between atoms: _218  and  _221
REMARK   95  A    between atoms: _221  and  _222
REMARK   96  A    between atoms: _222  and  _223
REMARK   97  A    between atoms: _223  and  _224
REMARK   98  A    between atoms: _233  and  _235
REMARK   99  A    between atoms: _235  and  _236
REMARK  100  A    between atoms: _235  and  _238
REMARK  101  A    between atoms: _238  and  _239
REMARK  102  A    between atoms: _239  and  _240
REMARK  103  A    between atoms: _245  and  _247
REMARK  104  A    between atoms: _247  and  _248
REMARK  105  A    between atoms: _247  and  _250
REMARK  106  A    between atoms: _250  and  _251
REMARK  107  A    between atoms: _257  and  _259
REMARK  108  A    between atoms: _259  and  _260
REMARK  109  A    between atoms: _259  and  _262
REMARK  110  A    between atoms: _262  and  _263
REMARK  111  A    between atoms: _266  and  _268
REMARK  112  A    between atoms: _268  and  _269
REMARK  113  A    between atoms: _268  and  _271
REMARK  114  A    between atoms: _271  and  _272
REMARK  115  A    between atoms: _277  and  _279
REMARK  116  A    between atoms: _279  and  _280
REMARK  117  A    between atoms: _279  and  _282
REMARK  118  A    between atoms: _282  and  _283
REMARK  119  A    between atoms: _286  and  _288
REMARK  120  A    between atoms: _288  and  _289
REMARK  121  A    between atoms: _288  and  _291
REMARK  122  A    between atoms: _294  and  _296
REMARK  123  A    between atoms: _296  and  _297
REMARK  124  A    between atoms: _296  and  _299
REMARK  125  A    between atoms: _299  and  _300
REMARK  126  A    between atoms: _300  and  _301
REMARK  127  A    between atoms: _301  and  _302
REMARK  128  A    between atoms: _302  and  _303
REMARK  129  A    between atoms: _307  and  _309
REMARK  130  A    between atoms: _309  and  _310
REMARK  131  A    between atoms: _309  and  _312
REMARK  132  A    between atoms: _312  and  _313
REMARK  133  A    between atoms: _316  and  _318
REMARK  134  A    between atoms: _318  and  _319
REMARK  135  A    between atoms: _318  and  _321
REMARK  136  A    between atoms: _321  and  _322
REMARK  137  A    between atoms: _325  and  _327
REMARK  138  A    between atoms: _327  and  _328
REMARK  139  A    between atoms: _327  and  _330
REMARK  140  A    between atoms: _330  and  _331
REMARK  141  A    between atoms: _334  and  _336
REMARK  142  A    between atoms: _336  and  _337
REMARK  143  A    between atoms: _336  and  _339
REMARK  144  A    between atoms: _339  and  _340
REMARK  145  A    between atoms: _340  and  _341
REMARK  146  A    between atoms: _343  and  _345
REMARK  147  A    between atoms: _345  and  _346
REMARK  148  A    between atoms: _345  and  _348
REMARK  149  A    between atoms: _348  and  _349
REMARK  150  A    between atoms: _349  and  _350
REMARK  151  A    between atoms: _353  and  _355
REMARK  152  A    between atoms: _355  and  _356
REMARK  153  A    between atoms: _355  and  _358
REMARK  154  A    between atoms: _358  and  _359
REMARK  155  A    between atoms: _362  and  _364
REMARK  156  A    between atoms: _364  and  _365
REMARK  157  A    between atoms: _364  and  _367
REMARK  158  A    between atoms: _369  and  _371
REMARK  159  A    between atoms: _371  and  _372
REMARK  160  A    between atoms: _371  and  _374
REMARK  161  A    between atoms: _374  and  _375
REMARK  162  A    between atoms: _378  and  _380
REMARK  163  A    between atoms: _380  and  _381
REMARK  164  A    between atoms: _380  and  _383
REMARK  165  A    between atoms: _383  and  _384
REMARK  166  A    between atoms: _387  and  _389
REMARK  167  A    between atoms: _389  and  _390
REMARK  168  A    between atoms: _392  and  _394
REMARK  169  A    between atoms: _394  and  _395
REMARK  170  A    between atoms: _394  and  _397
REMARK  171  A    between atoms: _397  and  _398
REMARK  172  A    between atoms: _398  and  _399
REMARK  173  A    between atoms: _402  and  _404
REMARK  174  A    between atoms: _404  and  _405
REMARK  175  A    between atoms: _408  and  _410
REMARK  176  A    between atoms: _410  and  _411
REMARK  177  A    between atoms: _410  and  _413
REMARK  178  A    between atoms: _413  and  _414
REMARK  179  A    between atoms: _417  and  _419
REMARK  180  A    between atoms: _419  and  _420
REMARK  181  A    between atoms: _419  and  _422
REMARK  182  A    between atoms: _422  and  _423
REMARK  183  A    between atoms: _428  and  _429
REMARK  184  A    between atoms: _431  and  _433
REMARK  185  A    between atoms: _433  and  _434
REMARK  186  A    between atoms: _433  and  _436
REMARK  187  A    between atoms: _436  and  _437
REMARK  188  A    between atoms: _440  and  _442
REMARK  189  A    between atoms: _442  and  _443
REMARK  190  A    between atoms: _442  and  _445
REMARK  191  A    between atoms: _445  and  _446
REMARK  192  A    between atoms: _452  and  _454
REMARK  193  A    between atoms: _454  and  _455
REMARK  194  A    between atoms: _454  and  _457
REMARK  195  A    between atoms: _460  and  _462
REMARK  196  A    between atoms: _462  and  _463
REMARK  197  A    between atoms: _462  and  _465
REMARK  198  A    between atoms: _465  and  _466
REMARK  199  A    between atoms: _471  and  _473
REMARK  200  A    between atoms: _473  and  _474
REMARK  201  A    between atoms: _473  and  _476
REMARK  202  A    between atoms: _476  and  _477
REMARK  203  A    between atoms: _477  and  _478
REMARK  204  A    between atoms: _478  and  _479
REMARK  205  A    between atoms: _488  and  _490
REMARK  206  A    between atoms: _490  and  _491
REMARK  207  A    between atoms: _490  and  _493
REMARK  208  A    between atoms: _493  and  _494
REMARK  209  A    between atoms: _497  and  _499
REMARK  210  A    between atoms: _499  and  _500
REMARK  211  A    between atoms: _499  and  _502
REMARK  212  A    between atoms: _502  and  _503
REMARK  213  A    between atoms: _506  and  _508
REMARK  214  A    between atoms: _508  and  _509
REMARK  215  A    between atoms: _508  and  _511
REMARK  216  A    between atoms: _511  and  _512
REMARK  217  A    between atoms: _517  and  _519
REMARK  218  A    between atoms: _519  and  _520
REMARK  219  A    between atoms: _519  and  _522
REMARK  220  A    between atoms: _525  and  _527
REMARK  221  A    between atoms: _527  and  _528
REMARK  222  A    between atoms: _527  and  _530
REMARK  223  A    between atoms: _530  and  _531
REMARK  224  A    between atoms: _534  and  _536
REMARK  225  A    between atoms: _536  and  _537
REMARK  226  A    between atoms: _536  and  _539
REMARK  227  A    between atoms: _542  and  _544
REMARK  228  A    between atoms: _544  and  _545
REMARK  229  A    between atoms: _544  and  _547
REMARK  230  A    between atoms: _547  and  _548
REMARK  231  A    between atoms: _550  and  _552
REMARK  232  A    between atoms: _552  and  _553
REMARK  233  A    between atoms: _552  and  _555
REMARK  234  A    between atoms: _555  and  _556
REMARK  235  A    between atoms: _556  and  _557
REMARK  236  A    between atoms: _557  and  _558
REMARK  237  A    between atoms: _558  and  _559
REMARK  238  A    between atoms: _563  and  _565
REMARK  239  A    between atoms: _565  and  _566
REMARK  240  A    between atoms: _565  and  _568
REMARK  241  A    between atoms: _568  and  _569
REMARK  242  A    between atoms: _572  and  _574
REMARK  243  A    between atoms: _574  and  _575
REMARK  244  A    between atoms: _577  and  _579
REMARK  245  A    between atoms: _579  and  _580
REMARK  246  A    between atoms: _579  and  _582
REMARK  247  A    between atoms: _582  and  _583
REMARK  248  A    between atoms: _586  and  _588
REMARK  249  A    between atoms: _588  and  _589
REMARK  250  A    between atoms: _588  and  _591
REMARK  251  A    between atoms: _591  and  _592
REMARK  252  A    between atoms: _598  and  _600
REMARK  253  A    between atoms: _600  and  _601
REMARK  254  A    between atoms: _603  and  _605
REMARK  255  A    between atoms: _605  and  _606
REMARK  256  A    between atoms: _605  and  _608
REMARK  257  A    between atoms: _608  and  _609
REMARK  258  A    between atoms: _612  and  _614
REMARK  259  A    between atoms: _614  and  _615
REMARK  260  A    between atoms: _614  and  _617
REMARK  261  A    between atoms: _617  and  _618
REMARK  262  A    between atoms: _620  and  _622
REMARK  263  A    between atoms: _622  and  _623
REMARK  264  A    between atoms: _622  and  _625
REMARK  265  A    between atoms: _625  and  _626
REMARK  266  A    between atoms: _626  and  _627
REMARK  267  A    between atoms: _627  and  _628
REMARK  268  A    between atoms: _637  and  _639
REMARK  269  A    between atoms: _639  and  _640
REMARK  270  A    between atoms: _639  and  _642
REMARK  271  A    between atoms: _642  and  _643
REMARK  272  A    between atoms: _648  and  _649
REMARK  273  A    between atoms: _651  and  _653
REMARK  274  A    between atoms: _653  and  _654
REMARK  275  A    between atoms: _653  and  _656
REMARK  276  A    between atoms: _656  and  _657
REMARK  277  A    between atoms: _657  and  _658
REMARK  278  A    between atoms: _660  and  _662
REMARK  279  A    between atoms: _662  and  _663
REMARK  280  A    between atoms: _662  and  _665
REMARK  281  A    between atoms: _665  and  _666
REMARK                            x       y       z     vdW  Elec       q    Type
REMARK                         _______ _______ _______ _____ _____    ______ ____
ROOT
ATOM      1  CA  TYR A   1      -8.568 -33.801  -0.244  0.00  0.00    +0.149 C 
ENDROOT
BRANCH   1   2
ATOM      2  C   TYR A   1      -8.839 -32.338  -0.628  0.00  0.00    +0.239 C 
ATOM      3  N   LEU A   2      -9.388 -31.532   0.270  0.00  0.00    -0.298 N 
ATOM      4  H   LEU A   2      -9.623 -31.888   1.218  0.00  0.00    +0.150 HD
ATOM      5  O   TYR A   1      -8.569 -31.955  -1.761  0.00  0.00    -0.274 OA
BRANCH   3   6
ATOM      6  CA  LEU A   2      -9.664 -30.122  -0.086  0.00  0.00    +0.137 C 
BRANCH   6   7
ATOM      7  C   LEU A   2      -8.356 -29.377  -0.398  0.00  0.00    +0.227 C 
ATOM      8  O   LEU A   2      -8.309 -28.597  -1.350  0.00  0.00    -0.286 OA
ENDBRANCH   6   7
BRANCH   6   9
ATOM      9  CB  LEU A   2     -10.444 -29.405   1.034  0.00  0.00    +0.028 C 
BRANCH   9  10
ATOM     10  CG  LEU A   2     -11.913 -29.870   1.201  0.00  0.00    +0.002 C 
ATOM     11  CD2 LEU A   2     -12.565 -29.228   2.406  0.00  0.00    +0.000 C 
ATOM     12  CD1 LEU A   2     -12.743 -29.565  -0.077  0.00  0.00    +0.000 C 
ENDBRANCH   9  10
ENDBRANCH   6   9
ENDBRANCH   3   6
ENDBRANCH   1   2
BRANCH   1  13
ATOM     13  N   TYR A   1      -7.917 -33.884   1.046  0.00  0.00    -0.238 NA
ATOM     14  H   TYR A   1      -8.420 -34.302   1.855  0.00  0.00    +0.142 HD
ENDBRANCH   1  13
BRANCH   1  15
ATOM     15  CB  TYR A   1      -9.826 -34.675  -0.276  0.00  0.00    +0.053 C 
BRANCH  15  16
ATOM     16  CG  TYR A   1     -10.692 -34.506  -1.498  0.00  0.00    -0.020 A 
ATOM     17  CD2 TYR A   1     -11.754 -33.603  -1.505  0.00  0.00    -0.001 A 
ATOM     18  CE2 TYR A   1     -12.572 -33.451  -2.629  0.00  0.00    +0.036 A 
ATOM     19  CZ  TYR A   1     -12.344 -34.225  -3.755  0.00  0.00    +0.134 A 
ATOM     20  CE1 TYR A   1     -11.305 -35.143  -3.770  0.00  0.00    +0.036 A 
ATOM     21  CD1 TYR A   1     -10.478 -35.275  -2.643  0.00  0.00    -0.001 A 
BRANCH  19  22
ATOM     22  OH  TYR A   1     -13.171 -34.090  -4.838  0.00  0.00    -0.506 OA
ATOM     23  HH  TYR A   1     -12.878 -34.707  -5.555  0.00  0.00    +0.292 HD
ENDBRANCH  19  22
ENDBRANCH  15  16
ENDBRANCH   1  15
TORSDOF 9
REMARK  Name = ../refined-set-2016/4k9y/4k9y_pocket.pdb
REMARK  281 active torsions:
REMARK  status: ('A' for Active; 'I' for Inactive)
REMARK    1  A    between atoms: _1  and  _3
REMARK    2  A    between atoms: _3  and  _4
REMARK    3  A    between atoms: _3  and  _6
REMARK    4  A    between atoms: _6  and  _7
REMARK    5  A    between atoms: _7  and  _8
REMARK    6  A    between atoms: _8  and  _9
REMARK    7  A    between atoms: _18  and  _20
REMARK    8  A    between atoms: _20  and  _21
REMARK    9  A    between atoms: _20  and  _23
REMARK   10  A    between atoms: _23  and  _24
REMARK   11  A    between atoms: _27  and  _29
REMARK   12  A    between atoms: _29  and  _30
REMARK   13  A    between atoms: _32  and  _34
REMARK   14  A    between atoms: _34  and  _35
REMARK   15  A    between atoms: _34  and  _37
REMARK   16  A    between atoms: _37  and  _38
REMARK   17  A    between atoms: _38  and  _39
REMARK   18  A    between atoms: _42  and  _44
REMARK   19  A    between atoms: _44  and  _45
REMARK   20  A    between atoms: _44  and  _47
REMARK   21  A    between atoms: _47  and  _48
REMARK   22  A    between atoms: _54  and  _56
REMARK   23  A    between atoms: _56  and  _57
REMARK   24  A    between atoms: _56  and  _59
REMARK   25  A    between atoms: _62  and  _64
REMARK   26  A    between atoms: _64  and  _65
REMARK   27  A    between atoms: _64  and  _67
REMARK   28  A    between atoms: _67  and  _68
REMARK   29  A    between atoms: _73  and  _75
REMARK   30  A    between atoms: _75  and  _76
REMARK   31  A    between atoms: _75  and  _78
REMARK   32  A    between atoms: _78  and  _79
REMARK   33  A    between atoms: _79  and  _80
REMARK   34  A    between atoms: _85  and  _87
REMARK   35  A    between atoms: _87  and  _88
REMARK   36  A    between atoms: _91  and  _93
REMARK   37  A    between atoms: _93  and  _94
REMARK   38  A    between atoms: _93  and  _96
REMARK   39  A    between atoms: _99  and  _101
REMARK   40  A    between atoms: _101  and  _102
REMARK   41  A    between atoms: _105  and  _107
REMARK   42  A    between atoms: _107  and  _108
REMARK   43  A    between atoms: _107  and  _110
REMARK   44  A    between atoms: _110  and  _111
REMARK   45  A    between atoms: _114  and  _116
REMARK   46  A    between atoms: _116  and  _117
REMARK   47  A    between atoms: _116  and  _119
REMARK   48  A    between atoms: _119  and  _120
REMARK   49  A    between atoms: _120  and  _121
REMARK   50  A    between atoms: _121  and  _122
REMARK   51  A    between atoms: _122  and  _123
REMARK   52  A    between atoms: _127  and  _129
REMARK   53  A    between atoms: _129  and  _130
REMARK   54  A    between atoms: _129  and  _132
REMARK   55  A    between atoms: _132  and  _133
REMARK   56  A    between atoms: _133  and  _134
REMARK   57  A    between atoms: _134  and  _135
REMARK   58  A    between atoms: _135  and  _136
REMARK   59  A    between atoms: _140  and  _142
REMARK   60  A    between atoms: _142  and  _143
REMARK   61  A    between atoms: _142  and  _145
REMARK   62  A    between atoms: _145  and  _146
REMARK   63  A    between atoms: _152  and  _154
REMARK   64  A    between atoms: _154  and  _155
REMARK   65  A    between atoms: _154  and  _157
REMARK   66  A    between atoms: _157  and  _158
REMARK   67  A    between atoms: _161  and  _163
REMARK   68  A    between atoms: _163  and  _164
REMARK   69  A    between atoms: _163  and  _166
REMARK   70  A    between atoms: _166  and  _167
REMARK   71  A    between atoms: _167  and  _168
REMARK   72  A    between atoms: _173  and  _175
REMARK   73  A    between atoms: _175  and  _176
REMARK   74  A    between atoms: _175  and  _178
REMARK   75  A    between atoms: _178  and  _179
REMARK   76  A    between atoms: _179  and  _180
REMARK   77  A    between atoms: _183  and  _185
REMARK   78  A    between atoms: _185  and  _186
REMARK   79  A    between atoms: _189  and  _191
REMARK   80  A    between atoms: _191  and  _192
REMARK   81  A    between atoms: _191  and  _194
REMARK   82  A    between atoms: _194  and  _195
REMARK   83  A    between atoms: _198  and  _200
REMARK   84  A    between atoms: _200  and  _201
REMARK   85  A    between atoms: _200  and  _203
REMARK   86  A    between atoms: _203  and  _204
REMARK   87  A    between atoms: _207  and  _209
REMARK   88  A    between atoms: _209  and  _210
REMARK   89  A    between atoms: _209  and  _212
REMARK   90  A    between atoms: _212  and  _213
REMARK   91  A    between atoms: _213  and  _214
REMARK   92  A    between atoms: _216  and  _218
REMARK   93  A    between atoms: _218  and  _219
REMARK   94  A    between atoms: _218  and  _221
REMARK   95  A    between atoms: _221  and  _222
REMARK   96  A    between atoms: _222  and  _223
REMARK   97  A    between atoms: _223  and  _224
REMARK   98  A    between atoms: _233  and  _235
REMARK   99  A    between atoms: _235  and  _236
REMARK  100  A    between atoms: _235  and  _238
REMARK  101  A    between atoms: _238  and  _239
REMARK  102  A    between atoms: _239  and  _240
REMARK  103  A    between atoms: _245  and  _247
REMARK  104  A    between atoms: _247  and  _248
REMARK  105  A    between atoms: _247  and  _250
REMARK  106  A    between atoms: _250  and  _251
REMARK  107  A    between atoms: _257  and  _259
REMARK  108  A    between atoms: _259  and  _260
REMARK  109  A    between atoms: _259  and  _262
REMARK  110  A    between atoms: _262  and  _263
REMARK  111  A    between atoms: _266  and  _268
REMARK  112  A    between atoms: _268  and  _269
REMARK  113  A    between atoms: _268  and  _271
REMARK  114  A    between atoms: _271  and  _272
REMARK  115  A    between atoms: _277  and  _279
REMARK  116  A    between atoms: _279  and  _280
REMARK  117  A    between atoms: _279  and  _282
REMARK  118  A    between atoms: _282  and  _283
REMARK  119  A    between atoms: _286  and  _288
REMARK  120  A    between atoms: _288  and  _289
REMARK  121  A    between atoms: _288  and  _291
REMARK  122  A    between atoms: _294  and  _296
REMARK  123  A    between atoms: _296  and  _297
REMARK  124  A    between atoms: _296  and  _299
REMARK  125  A    between atoms: _299  and  _300
REMARK  126  A    between atoms: _300  and  _301
REMARK  127  A    between atoms: _301  and  _302
REMARK  128  A    between atoms: _302  and  _303
REMARK  129  A    between atoms: _307  and  _309
REMARK  130  A    between atoms: _309  and  _310
REMARK  131  A    between atoms: _309  and  _312
REMARK  132  A    between atoms: _312  and  _313
REMARK  133  A    between atoms: _316  and  _318
REMARK  134  A    between atoms: _318  and  _319
REMARK  135  A    between atoms: _318  and  _321
REMARK  136  A    between atoms: _321  and  _322
REMARK  137  A    between atoms: _325  and  _327
REMARK  138  A    between atoms: _327  and  _328
REMARK  139  A    between atoms: _327  and  _330
REMARK  140  A    between atoms: _330  and  _331
REMARK  141  A    between atoms: _334  and  _336
REMARK  142  A    between atoms: _336  and  _337
REMARK  143  A    between atoms: _336  and  _339
REMARK  144  A    between atoms: _339  and  _340
REMARK  145  A    between atoms: _340  and  _341
REMARK  146  A    between atoms: _343  and  _345
REMARK  147  A    between atoms: _345  and  _346
REMARK  148  A    between atoms: _345  and  _348
REMARK  149  A    between atoms: _348  and  _349
REMARK  150  A    between atoms: _349  and  _350
REMARK  151  A    between atoms: _353  and  _355
REMARK  152  A    between atoms: _355  and  _356
REMARK  153  A    between atoms: _355  and  _358
REMARK  154  A    between atoms: _358  and  _359
REMARK  155  A    between atoms: _362  and  _364
REMARK  156  A    between atoms: _364  and  _365
REMARK  157  A    between atoms: _364  and  _367
REMARK  158  A    between atoms: _369  and  _371
REMARK  159  A    between atoms: _371  and  _372
REMARK  160  A    between atoms: _371  and  _374
REMARK  161  A    between atoms: _374  and  _375
REMARK  162  A    between atoms: _378  and  _380
REMARK  163  A    between atoms: _380  and  _381
REMARK  164  A    between atoms: _380  and  _383
REMARK  165  A    between atoms: _383  and  _384
REMARK  166  A    between atoms: _387  and  _389
REMARK  167  A    between atoms: _389  and  _390
REMARK  168  A    between atoms: _392  and  _394
REMARK  169  A    between atoms: _394  and  _395
REMARK  170  A    between atoms: _394  and  _397
REMARK  171  A    between atoms: _397  and  _398
REMARK  172  A    between atoms: _398  and  _399
REMARK  173  A    between atoms: _402  and  _404
REMARK  174  A    between atoms: _404  and  _405
REMARK  175  A    between atoms: _408  and  _410
REMARK  176  A    between atoms: _410  and  _411
REMARK  177  A    between atoms: _410  and  _413
REMARK  178  A    between atoms: _413  and  _414
REMARK  179  A    between atoms: _417  and  _419
REMARK  180  A    between atoms: _419  and  _420
REMARK  181  A    between atoms: _419  and  _422
REMARK  182  A    between atoms: _422  and  _423
REMARK  183  A    between atoms: _428  and  _429
REMARK  184  A    between atoms: _431  and  _433
REMARK  185  A    between atoms: _433  and  _434
REMARK  186  A    between atoms: _433  and  _436
REMARK  187  A    between atoms: _436  and  _437
REMARK  188  A    between atoms: _440  and  _442
REMARK  189  A    between atoms: _442  and  _443
REMARK  190  A    between atoms: _442  and  _445
REMARK  191  A    between atoms: _445  and  _446
REMARK  192  A    between atoms: _452  and  _454
REMARK  193  A    between atoms: _454  and  _455
REMARK  194  A    between atoms: _454  and  _457
REMARK  195  A    between atoms: _460  and  _462
REMARK  196  A    between atoms: _462  and  _463
REMARK  197  A    between atoms: _462  and  _465
REMARK  198  A    between atoms: _465  and  _466
REMARK  199  A    between atoms: _471  and  _473
REMARK  200  A    between atoms: _473  and  _474
REMARK  201  A    between atoms: _473  and  _476
REMARK  202  A    between atoms: _476  and  _477
REMARK  203  A    between atoms: _477  and  _478
REMARK  204  A    between atoms: _478  and  _479
REMARK  205  A    between atoms: _488  and  _490
REMARK  206  A    between atoms: _490  and  _491
REMARK  207  A    between atoms: _490  and  _493
REMARK  208  A    between atoms: _493  and  _494
REMARK  209  A    between atoms: _497  and  _499
REMARK  210  A    between atoms: _499  and  _500
REMARK  211  A    between atoms: _499  and  _502
REMARK  212  A    between atoms: _502  and  _503
REMARK  213  A    between atoms: _506  and  _508
REMARK  214  A    between atoms: _508  and  _509
REMARK  215  A    between atoms: _508  and  _511
REMARK  216  A    between atoms: _511  and  _512
REMARK  217  A    between atoms: _517  and  _519
REMARK  218  A    between atoms: _519  and  _520
REMARK  219  A    between atoms: _519  and  _522
REMARK  220  A    between atoms: _525  and  _527
REMARK  221  A    between atoms: _527  and  _528
REMARK  222  A    between atoms: _527  and  _530
REMARK  223  A    between atoms: _530  and  _531
REMARK  224  A    between atoms: _534  and  _536
REMARK  225  A    between atoms: _536  and  _537
REMARK  226  A    between atoms: _536  and  _539
REMARK  227  A    between atoms: _542  and  _544
REMARK  228  A    between atoms: _544  and  _545
REMARK  229  A    between atoms: _544  and  _547
REMARK  230  A    between atoms: _547  and  _548
REMARK  231  A    between atoms: _550  and  _552
REMARK  232  A    between atoms: _552  and  _553
REMARK  233  A    between atoms: _552  and  _555
REMARK  234  A    between atoms: _555  and  _556
REMARK  235  A    between atoms: _556  and  _557
REMARK  236  A    between atoms: _557  and  _558
REMARK  237  A    between atoms: _558  and  _559
REMARK  238  A    between atoms: _563  and  _565
REMARK  239  A    between atoms: _565  and  _566
REMARK  240  A    between atoms: _565  and  _568
REMARK  241  A    between atoms: _568  and  _569
REMARK  242  A    between atoms: _572  and  _574
REMARK  243  A    between atoms: _574  and  _575
REMARK  244  A    between atoms: _577  and  _579
REMARK  245  A    between atoms: _579  and  _580
REMARK  246  A    between atoms: _579  and  _582
REMARK  247  A    between atoms: _582  and  _583
REMARK  248  A    between atoms: _586  and  _588
REMARK  249  A    between atoms: _588  and  _589
REMARK  250  A    between atoms: _588  and  _591
REMARK  251  A    between atoms: _591  and  _592
REMARK  252  A    between atoms: _598  and  _600
REMARK  253  A    between atoms: _600  and  _601
REMARK  254  A    between atoms: _603  and  _605
REMARK  255  A    between atoms: _605  and  _606
REMARK  256  A    between atoms: _605  and  _608
REMARK  257  A    between atoms: _608  and  _609
REMARK  258  A    between atoms: _612  and  _614
REMARK  259  A    between atoms: _614  and  _615
REMARK  260  A    between atoms: _614  and  _617
REMARK  261  A    between atoms: _617  and  _618
REMARK  262  A    between atoms: _620  and  _622
REMARK  263  A    between atoms: _622  and  _623
REMARK  264  A    between atoms: _622  and  _625
REMARK  265  A    between atoms: _625  and  _626
REMARK  266  A    between atoms: _626  and  _627
REMARK  267  A    between atoms: _627  and  _628
REMARK  268  A    between atoms: _637  and  _639
REMARK  269  A    between atoms: _639  and  _640
REMARK  270  A    between atoms: _639  and  _642
REMARK  271  A    between atoms: _642  and  _643
REMARK  272  A    between atoms: _648  and  _649
REMARK  273  A    between atoms: _651  and  _653
REMARK  274  A    between atoms: _653  and  _654
REMARK  275  A    between atoms: _653  and  _656
REMARK  276  A    between atoms: _656  and  _657
REMARK  277  A    between atoms: _657  and  _658
REMARK  278  A    between atoms: _660  and  _662
REMARK  279  A    between atoms: _662  and  _663
REMARK  280  A    between atoms: _662  and  _665
REMARK  281  A    between atoms: _665  and  _666
REMARK                            x       y       z     vdW  Elec       q    Type
REMARK                         _______ _______ _______ _____ _____    ______ ____
ROOT
ATOM      1  C   HIS A   3     -12.779 -22.927   4.983  0.00  0.00    +0.241 C 
ATOM      2  N   ARG A   4     -11.812 -22.422   5.800  0.00  0.00    -0.297 N 
ATOM      3  H   ARG A   4     -10.921 -22.957   5.835  0.00  0.00    +0.150 HD
ATOM      4  O   HIS A   3     -13.903 -22.441   4.869  0.00  0.00    -0.273 OA
ENDROOT
BRANCH   2   5
ATOM      5  CA  ARG A   4     -11.872 -21.209   6.642  0.00  0.00    +0.149 C 
BRANCH   5   6
ATOM      6  C   ARG A   4     -12.597 -21.367   7.994  0.00  0.00    +0.241 C 
ATOM      7  O   ARG A   4     -12.510 -20.453   8.816  0.00  0.00    -0.273 OA
ATOM      8  N   ASP A   5     -13.319 -22.478   8.213  0.00  0.00    -0.297 N 
ATOM      9  H   ASP A   5     -13.393 -23.198   7.467  0.00  0.00    +0.150 HD
BRANCH   8  10
ATOM     10  CA  ASP A   5     -13.997 -22.685   9.479  0.00  0.00    +0.160 C 
BRANCH  10  11
ATOM     11  C   ASP A   5     -13.959 -24.135   9.929  0.00  0.00    +0.241 C 
ATOM     12  N   ILE A   6     -12.745 -24.671  10.157  0.00  0.00    -0.298 N 
ATOM     13  H   ILE A   6     -11.888 -24.103   9.997  0.00  0.00    +0.150 HD
ATOM     14  O   ASP A   5     -15.012 -24.753  10.131  0.00  0.00    -0.273 OA
BRANCH  12  15
ATOM     15  CA  ILE A   6     -12.629 -26.053  10.631  0.00  0.00    +0.137 C 
BRANCH  15  16
ATOM     16  C   ILE A   6     -12.951 -26.080  12.115  0.00  0.00    +0.227 C 
ATOM     17  O   ILE A   6     -12.259 -25.467  12.915  0.00  0.00    -0.286 OA
ENDBRANCH  15  16
BRANCH  15  18
ATOM     18  CB  ILE A   6     -11.305 -26.773  10.241  0.00  0.00    +0.026 C 
ATOM     19  CG2 ILE A   6     -11.355 -28.250  10.670  0.00  0.00    +0.002 C 
BRANCH  18  20
ATOM     20  CG1 ILE A   6     -11.010 -26.631   8.704  0.00  0.00    +0.002 C 
ATOM     21  CD1 ILE A   6     -12.135 -27.168   7.881  0.00  0.00    +0.000 C 
ENDBRANCH  18  20
ENDBRANCH  15  18
ENDBRANCH  12  15
ENDBRANCH  10  11
BRANCH  10  22
ATOM     22  CB  ASP A   5     -15.441 -22.111   9.495  0.00  0.00    +0.143 C 
BRANCH  22  23
ATOM     23  CG  ASP A   5     -15.985 -21.927  10.916  0.00  0.00    +0.367 C 
ATOM     24  OD2 ASP A   5     -15.174 -21.704  11.840  0.00  0.00    -0.246 OA
ATOM     25  OD1 ASP A   5     -17.207 -22.056  11.107  0.00  0.00    -0.246 OA
ENDBRANCH  22  23
ENDBRANCH  10  22
ENDBRANCH   8  10
ENDBRANCH   5   6
BRANCH   5  26
ATOM     26  CB  ARG A   4     -12.467 -19.988   5.894  0.00  0.00    +0.033 C 
BRANCH  26  27
ATOM     27  CG  ARG A   4     -11.683 -19.562   4.659  0.00  0.00    +0.045 C 
BRANCH  27  28
ATOM     28  CD  ARG A   4     -12.547 -18.731   3.724  0.00  0.00    +0.174 C 
BRANCH  28  29
ATOM     29  NE  ARG A   4     -12.841 -17.417   4.292  0.00  0.00    -0.265 N 
ATOM     30  HE  ARG A   4     -13.658 -17.336   4.930  0.00  0.00    +0.259 HD
ATOM     31  CZ  ARG A   4     -12.134 -16.320   4.048  0.00  0.00    +0.342 C 
ATOM     32  NH2 ARG A   4     -12.471 -15.168   4.612  0.00  0.00    -0.292 N 
ATOM     33 HH21 ARG A   4     -13.292 -15.121   5.248  0.00  0.00    +0.255 HD
ATOM     34 HH22 ARG A   4     -11.914 -14.311   4.418  0.00  0.00    +0.255 HD
ATOM     35  NH1 ARG A   4     -11.088 -16.362   3.230  0.00  0.00    -0.292 N 
ATOM     36 HH11 ARG A   4     -10.539 -15.499   3.043  0.00  0.00    +0.255 HD
ATOM     37 HH12 ARG A   4     -10.818 -17.258   2.776  0.00  0.00    +0.255 HD
ENDBRANCH  28  29
ENDBRANCH  27  28
ENDBRANCH  26  27
ENDBRANCH   5  26
ENDBRANCH   2   5
BRANCH   1  38
ATOM     38  CA  HIS A   3     -12.435 -24.171   4.178  0.00  0.00    +0.155 C 
BRANCH  38  40
ATOM     39  C   VAL A   2     -10.834 -23.282   2.494  0.00  0.00    +0.241 C 
ATOM     40  N   HIS A   3     -11.082 -24.076   3.566  0.00  0.00    -0.297 N 
ATOM     41  H   HIS A   3     -10.304 -24.634   3.972  0.00  0.00    +0.150 HD
ATOM     42  O   VAL A   2     -11.704 -22.573   1.967  0.00  0.00    -0.273 OA
BRANCH  39  43
ATOM     43  CA  VAL A   2      -9.403 -23.278   1.911  0.00  0.00    +0.148 C 
BRANCH  43  46
ATOM     44  C   PHE A   1      -9.336 -24.888   0.026  0.00  0.00    +0.239 C 
ATOM     45  O   PHE A   1      -9.025 -25.850   0.736  0.00  0.00    -0.274 OA
ATOM     46  N   VAL A   2      -9.524 -23.651   0.492  0.00  0.00    -0.297 N 
ATOM     47  H   VAL A   2      -9.771 -22.905  -0.189  0.00  0.00    +0.150 HD
BRANCH  44  48
ATOM     48  CA  PHE A   1      -9.549 -25.094  -1.460  0.00  0.00    +0.149 C 
BRANCH  48  49
ATOM     49  N   PHE A   1      -8.348 -25.702  -1.989  0.00  0.00    -0.238 NA
ATOM     50  H   PHE A   1      -8.131 -26.692  -1.757  0.00  0.00    +0.142 HD
ENDBRANCH  48  49
BRANCH  48  51
ATOM     51  CB  PHE A   1     -10.780 -25.994  -1.715  0.00  0.00    +0.053 C 
BRANCH  51  52
ATOM     52  CG  PHE A   1     -12.073 -25.402  -1.201  0.00  0.00    -0.020 A 
ATOM     53  CD2 PHE A   1     -12.535 -25.703   0.077  0.00  0.00    -0.004 A 
ATOM     54  CE2 PHE A   1     -13.740 -25.156   0.552  0.00  0.00    -0.000 A 
ATOM     55  CZ  PHE A   1     -14.493 -24.327  -0.256  0.00  0.00    -0.000 A 
ATOM     56  CE1 PHE A   1     -14.044 -24.010  -1.525  0.00  0.00    -0.000 A 
ATOM     57  CD1 PHE A   1     -12.836 -24.554  -2.000  0.00  0.00    -0.004 A 
ENDBRANCH  51  52
ENDBRANCH  48  51
ENDBRANCH  44  48
ENDBRANCH  43  46
BRANCH  43  58
ATOM     58  CB  VAL A   2      -8.708 -21.903   2.087  0.00  0.00    +0.027 C 
ATOM     59  CG2 VAL A   2      -8.572 -21.531   3.578  0.00  0.00    +0.002 C 
ATOM     60  CG1 VAL A   2      -7.330 -21.895   1.412  0.00  0.00    +0.002 C 
ENDBRANCH  43  58
ENDBRANCH  39  43
ENDBRANCH  38  40
BRANCH  38  61
ATOM     61  CB  HIS A   3     -12.580 -25.449   5.033  0.00  0.00    +0.076 C 
BRANCH  61  62
ATOM     62  CG  HIS A   3     -13.947 -25.669   5.635  0.00  0.00    +0.082 A 
ATOM     63  ND1 HIS A   3     -14.411 -24.892   6.694  0.00  0.00    -0.227 NA
ATOM     64  CE1 HIS A   3     -15.607 -25.380   7.008  0.00  0.00    +0.199 A 
ATOM     65  NE2 HIS A   3     -15.927 -26.411   6.240  0.00  0.00    -0.221 NA
ATOM     66  CD2 HIS A   3     -14.871 -26.616   5.361  0.00  0.00    +0.115 A 
ENDBRANCH  61  62
ENDBRANCH  38  61
ENDBRANCH   1  38
TORSDOF 25
REMARK  Name = ../refined-set-2016/4k9y/4k9y_pocket.pdb
REMARK  281 active torsions:
REMARK  status: ('A' for Active; 'I' for Inactive)
REMARK    1  A    between atoms: _1  and  _3
REMARK    2  A    between atoms: _3  and  _4
REMARK    3  A    between atoms: _3  and  _6
REMARK    4  A    between atoms: _6  and  _7
REMARK    5  A    between atoms: _7  and  _8
REMARK    6  A    between atoms: _8  and  _9
REMARK    7  A    between atoms: _18  and  _20
REMARK    8  A    between atoms: _20  and  _21
REMARK    9  A    between atoms: _20  and  _23
REMARK   10  A    between atoms: _23  and  _24
REMARK   11  A    between atoms: _27  and  _29
REMARK   12  A    between atoms: _29  and  _30
REMARK   13  A    between atoms: _32  and  _34
REMARK   14  A    between atoms: _34  and  _35
REMARK   15  A    between atoms: _34  and  _37
REMARK   16  A    between atoms: _37  and  _38
REMARK   17  A    between atoms: _38  and  _39
REMARK   18  A    between atoms: _42  and  _44
REMARK   19  A    between atoms: _44  and  _45
REMARK   20  A    between atoms: _44  and  _47
REMARK   21  A    between atoms: _47  and  _48
REMARK   22  A    between atoms: _54  and  _56
REMARK   23  A    between atoms: _56  and  _57
REMARK   24  A    between atoms: _56  and  _59
REMARK   25  A    between atoms: _62  and  _64
REMARK   26  A    between atoms: _64  and  _65
REMARK   27  A    between atoms: _64  and  _67
REMARK   28  A    between atoms: _67  and  _68
REMARK   29  A    between atoms: _73  and  _75
REMARK   30  A    between atoms: _75  and  _76
REMARK   31  A    between atoms: _75  and  _78
REMARK   32  A    between atoms: _78  and  _79
REMARK   33  A    between atoms: _79  and  _80
REMARK   34  A    between atoms: _85  and  _87
REMARK   35  A    between atoms: _87  and  _88
REMARK   36  A    between atoms: _91  and  _93
REMARK   37  A    between atoms: _93  and  _94
REMARK   38  A    between atoms: _93  and  _96
REMARK   39  A    between atoms: _99  and  _101
REMARK   40  A    between atoms: _101  and  _102
REMARK   41  A    between atoms: _105  and  _107
REMARK   42  A    between atoms: _107  and  _108
REMARK   43  A    between atoms: _107  and  _110
REMARK   44  A    between atoms: _110  and  _111
REMARK   45  A    between atoms: _114  and  _116
REMARK   46  A    between atoms: _116  and  _117
REMARK   47  A    between atoms: _116  and  _119
REMARK   48  A    between atoms: _119  and  _120
REMARK   49  A    between atoms: _120  and  _121
REMARK   50  A    between atoms: _121  and  _122
REMARK   51  A    between atoms: _122  and  _123
REMARK   52  A    between atoms: _127  and  _129
REMARK   53  A    between atoms: _129  and  _130
REMARK   54  A    between atoms: _129  and  _132
REMARK   55  A    between atoms: _132  and  _133
REMARK   56  A    between atoms: _133  and  _134
REMARK   57  A    between atoms: _134  and  _135
REMARK   58  A    between atoms: _135  and  _136
REMARK   59  A    between atoms: _140  and  _142
REMARK   60  A    between atoms: _142  and  _143
REMARK   61  A    between atoms: _142  and  _145
REMARK   62  A    between atoms: _145  and  _146
REMARK   63  A    between atoms: _152  and  _154
REMARK   64  A    between atoms: _154  and  _155
REMARK   65  A    between atoms: _154  and  _157
REMARK   66  A    between atoms: _157  and  _158
REMARK   67  A    between atoms: _161  and  _163
REMARK   68  A    between atoms: _163  and  _164
REMARK   69  A    between atoms: _163  and  _166
REMARK   70  A    between atoms: _166  and  _167
REMARK   71  A    between atoms: _167  and  _168
REMARK   72  A    between atoms: _173  and  _175
REMARK   73  A    between atoms: _175  and  _176
REMARK   74  A    between atoms: _175  and  _178
REMARK   75  A    between atoms: _178  and  _179
REMARK   76  A    between atoms: _179  and  _180
REMARK   77  A    between atoms: _183  and  _185
REMARK   78  A    between atoms: _185  and  _186
REMARK   79  A    between atoms: _189  and  _191
REMARK   80  A    between atoms: _191  and  _192
REMARK   81  A    between atoms: _191  and  _194
REMARK   82  A    between atoms: _194  and  _195
REMARK   83  A    between atoms: _198  and  _200
REMARK   84  A    between atoms: _200  and  _201
REMARK   85  A    between atoms: _200  and  _203
REMARK   86  A    between atoms: _203  and  _204
REMARK   87  A    between atoms: _207  and  _209
REMARK   88  A    between atoms: _209  and  _210
REMARK   89  A    between atoms: _209  and  _212
REMARK   90  A    between atoms: _212  and  _213
REMARK   91  A    between atoms: _213  and  _214
REMARK   92  A    between atoms: _216  and  _218
REMARK   93  A    between atoms: _218  and  _219
REMARK   94  A    between atoms: _218  and  _221
REMARK   95  A    between atoms: _221  and  _222
REMARK   96  A    between atoms: _222  and  _223
REMARK   97  A    between atoms: _223  and  _224
REMARK   98  A    between atoms: _233  and  _235
REMARK   99  A    between atoms: _235  and  _236
REMARK  100  A    between atoms: _235  and  _238
REMARK  101  A    between atoms: _238  and  _239
REMARK  102  A    between atoms: _239  and  _240
REMARK  103  A    between atoms: _245  and  _247
REMARK  104  A    between atoms: _247  and  _248
REMARK  105  A    between atoms: _247  and  _250
REMARK  106  A    between atoms: _250  and  _251
REMARK  107  A    between atoms: _257  and  _259
REMARK  108  A    between atoms: _259  and  _260
REMARK  109  A    between atoms: _259  and  _262
REMARK  110  A    between atoms: _262  and  _263
REMARK  111  A    between atoms: _266  and  _268
REMARK  112  A    between atoms: _268  and  _269
REMARK  113  A    between atoms: _268  and  _271
REMARK  114  A    between atoms: _271  and  _272
REMARK  115  A    between atoms: _277  and  _279
REMARK  116  A    between atoms: _279  and  _280
REMARK  117  A    between atoms: _279  and  _282
REMARK  118  A    between atoms: _282  and  _283
REMARK  119  A    between atoms: _286  and  _288
REMARK  120  A    between atoms: _288  and  _289
REMARK  121  A    between atoms: _288  and  _291
REMARK  122  A    between atoms: _294  and  _296
REMARK  123  A    between atoms: _296  and  _297
REMARK  124  A    between atoms: _296  and  _299
REMARK  125  A    between atoms: _299  and  _300
REMARK  126  A    between atoms: _300  and  _301
REMARK  127  A    between atoms: _301  and  _302
REMARK  128  A    between atoms: _302  and  _303
REMARK  129  A    between atoms: _307  and  _309
REMARK  130  A    between atoms: _309  and  _310
REMARK  131  A    between atoms: _309  and  _312
REMARK  132  A    between atoms: _312  and  _313
REMARK  133  A    between atoms: _316  and  _318
REMARK  134  A    between atoms: _318  and  _319
REMARK  135  A    between atoms: _318  and  _321
REMARK  136  A    between atoms: _321  and  _322
REMARK  137  A    between atoms: _325  and  _327
REMARK  138  A    between atoms: _327  and  _328
REMARK  139  A    between atoms: _327  and  _330
REMARK  140  A    between atoms: _330  and  _331
REMARK  141  A    between atoms: _334  and  _336
REMARK  142  A    between atoms: _336  and  _337
REMARK  143  A    between atoms: _336  and  _339
REMARK  144  A    between atoms: _339  and  _340
REMARK  145  A    between atoms: _340  and  _341
REMARK  146  A    between atoms: _343  and  _345
REMARK  147  A    between atoms: _345  and  _346
REMARK  148  A    between atoms: _345  and  _348
REMARK  149  A    between atoms: _348  and  _349
REMARK  150  A    between atoms: _349  and  _350
REMARK  151  A    between atoms: _353  and  _355
REMARK  152  A    between atoms: _355  and  _356
REMARK  153  A    between atoms: _355  and  _358
REMARK  154  A    between atoms: _358  and  _359
REMARK  155  A    between atoms: _362  and  _364
REMARK  156  A    between atoms: _364  and  _365
REMARK  157  A    between atoms: _364  and  _367
REMARK  158  A    between atoms: _369  and  _371
REMARK  159  A    between atoms: _371  and  _372
REMARK  160  A    between atoms: _371  and  _374
REMARK  161  A    between atoms: _374  and  _375
REMARK  162  A    between atoms: _378  and  _380
REMARK  163  A    between atoms: _380  and  _381
REMARK  164  A    between atoms: _380  and  _383
REMARK  165  A    between atoms: _383  and  _384
REMARK  166  A    between atoms: _387  and  _389
REMARK  167  A    between atoms: _389  and  _390
REMARK  168  A    between atoms: _392  and  _394
REMARK  169  A    between atoms: _394  and  _395
REMARK  170  A    between atoms: _394  and  _397
REMARK  171  A    between atoms: _397  and  _398
REMARK  172  A    between atoms: _398  and  _399
REMARK  173  A    between atoms: _402  and  _404
REMARK  174  A    between atoms: _404  and  _405
REMARK  175  A    between atoms: _408  and  _410
REMARK  176  A    between atoms: _410  and  _411
REMARK  177  A    between atoms: _410  and  _413
REMARK  178  A    between atoms: _413  and  _414
REMARK  179  A    between atoms: _417  and  _419
REMARK  180  A    between atoms: _419  and  _420
REMARK  181  A    between atoms: _419  and  _422
REMARK  182  A    between atoms: _422  and  _423
REMARK  183  A    between atoms: _428  and  _429
REMARK  184  A    between atoms: _431  and  _433
REMARK  185  A    between atoms: _433  and  _434
REMARK  186  A    between atoms: _433  and  _436
REMARK  187  A    between atoms: _436  and  _437
REMARK  188  A    between atoms: _440  and  _442
REMARK  189  A    between atoms: _442  and  _443
REMARK  190  A    between atoms: _442  and  _445
REMARK  191  A    between atoms: _445  and  _446
REMARK  192  A    between atoms: _452  and  _454
REMARK  193  A    between atoms: _454  and  _455
REMARK  194  A    between atoms: _454  and  _457
REMARK  195  A    between atoms: _460  and  _462
REMARK  196  A    between atoms: _462  and  _463
REMARK  197  A    between atoms: _462  and  _465
REMARK  198  A    between atoms: _465  and  _466
REMARK  199  A    between atoms: _471  and  _473
REMARK  200  A    between atoms: _473  and  _474
REMARK  201  A    between atoms: _473  and  _476
REMARK  202  A    between atoms: _476  and  _477
REMARK  203  A    between atoms: _477  and  _478
REMARK  204  A    between atoms: _478  and  _479
REMARK  205  A    between atoms: _488  and  _490
REMARK  206  A    between atoms: _490  and  _491
REMARK  207  A    between atoms: _490  and  _493
REMARK  208  A    between atoms: _493  and  _494
REMARK  209  A    between atoms: _497  and  _499
REMARK  210  A    between atoms: _499  and  _500
REMARK  211  A    between atoms: _499  and  _502
REMARK  212  A    between atoms: _502  and  _503
REMARK  213  A    between atoms: _506  and  _508
REMARK  214  A    between atoms: _508  and  _509
REMARK  215  A    between atoms: _508  and  _511
REMARK  216  A    between atoms: _511  and  _512
REMARK  217  A    between atoms: _517  and  _519
REMARK  218  A    between atoms: _519  and  _520
REMARK  219  A    between atoms: _519  and  _522
REMARK  220  A    between atoms: _525  and  _527
REMARK  221  A    between atoms: _527  and  _528
REMARK  222  A    between atoms: _527  and  _530
REMARK  223  A    between atoms: _530  and  _531
REMARK  224  A    between atoms: _534  and  _536
REMARK  225  A    between atoms: _536  and  _537
REMARK  226  A    between atoms: _536  and  _539
REMARK  227  A    between atoms: _542  and  _544
REMARK  228  A    between atoms: _544  and  _545
REMARK  229  A    between atoms: _544  and  _547
REMARK  230  A    between atoms: _547  and  _548
REMARK  231  A    between atoms: _550  and  _552
REMARK  232  A    between atoms: _552  and  _553
REMARK  233  A    between atoms: _552  and  _555
REMARK  234  A    between atoms: _555  and  _556
REMARK  235  A    between atoms: _556  and  _557
REMARK  236  A    between atoms: _557  and  _558
REMARK  237  A    between atoms: _558  and  _559
REMARK  238  A    between atoms: _563  and  _565
REMARK  239  A    between atoms: _565  and  _566
REMARK  240  A    between atoms: _565  and  _568
REMARK  241  A    between atoms: _568  and  _569
REMARK  242  A    between atoms: _572  and  _574
REMARK  243  A    between atoms: _574  and  _575
REMARK  244  A    between atoms: _577  and  _579
REMARK  245  A    between atoms: _579  and  _580
REMARK  246  A    between atoms: _579  and  _582
REMARK  247  A    between atoms: _582  and  _583
REMARK  248  A    between atoms: _586  and  _588
REMARK  249  A    between atoms: _588  and  _589
REMARK  250  A    between atoms: _588  and  _591
REMARK  251  A    between atoms: _591  and  _592
REMARK  252  A    between atoms: _598  and  _600
REMARK  253  A    between atoms: _600  and  _601
REMARK  254  A    between atoms: _603  and  _605
REMARK  255  A    between atoms: _605  and  _606
REMARK  256  A    between atoms: _605  and  _608
REMARK  257  A    between atoms: _608  and  _609
REMARK  258  A    between atoms: _612  and  _614
REMARK  259  A    between atoms: _614  and  _615
REMARK  260  A    between atoms: _614  and  _617
REMARK  261  A    between atoms: _617  and  _618
REMARK  262  A    between atoms: _620  and  _622
REMARK  263  A    between atoms: _622  and  _623
REMARK  264  A    between atoms: _622  and  _625
REMARK  265  A    between atoms: _625  and  _626
REMARK  266  A    between atoms: _626  and  _627
REMARK  267  A    between atoms: _627  and  _628
REMARK  268  A    between atoms: _637  and  _639
REMARK  269  A    between atoms: _639  and  _640
REMARK  270  A    between atoms: _639  and  _642
REMARK  271  A    between atoms: _642  and  _643
REMARK  272  A    between atoms: _648  and  _649
REMARK  273  A    between atoms: _651  and  _653
REMARK  274  A    between atoms: _653  and  _654
REMARK  275  A    between atoms: _653  and  _656
REMARK  276  A    between atoms: _656  and  _657
REMARK  277  A    between atoms: _657  and  _658
REMARK  278  A    between atoms: _660  and  _662
REMARK  279  A    between atoms: _662  and  _663
REMARK  280  A    between atoms: _662  and  _665
REMARK  281  A    between atoms: _665  and  _666
REMARK                            x       y       z     vdW  Elec       q    Type
REMARK                         _______ _______ _______ _____ _____    ______ ____
ROOT
ATOM      1  CA  LEU A   3     -21.965 -34.227  10.880  0.00  0.00    +0.149 C 
ENDROOT
BRANCH   1   4
ATOM      2  C   VAL A   2     -20.345 -32.498  11.511  0.00  0.00    +0.241 C 
ATOM      3  O   VAL A   2     -20.962 -32.222  12.558  0.00  0.00    -0.273 OA
ATOM      4  N   LEU A   3     -20.768 -33.398  10.621  0.00  0.00    -0.297 N 
ATOM      5  H   LEU A   3     -20.247 -33.519   9.729  0.00  0.00    +0.150 HD
BRANCH   2   6
ATOM      6  CA  VAL A   2     -19.041 -31.779  11.168  0.00  0.00    +0.148 C 
BRANCH   6   8
ATOM      7  C   ASN A   1     -19.095 -29.460  10.433  0.00  0.00    +0.239 C 
ATOM      8  N   VAL A   2     -19.189 -30.350  11.420  0.00  0.00    -0.297 N 
ATOM      9  H   VAL A   2     -19.371 -30.019  12.389  0.00  0.00    +0.150 HD
ATOM     10  O   ASN A   1     -18.965 -29.791   9.263  0.00  0.00    -0.274 OA
BRANCH   7  11
ATOM     11  CA  ASN A   1     -19.243 -27.984  10.806  0.00  0.00    +0.154 C 
BRANCH  11  12
ATOM     12  N   ASN A   1     -19.101 -27.754  12.247  0.00  0.00    -0.238 NA
ATOM     13  H   ASN A   1     -18.150 -27.737  12.668  0.00  0.00    +0.142 HD
ENDBRANCH  11  12
BRANCH  11  14
ATOM     14  CB  ASN A   1     -18.294 -27.062  10.027  0.00  0.00    +0.111 C 
BRANCH  14  15
ATOM     15  CG  ASN A   1     -18.687 -25.610  10.165  0.00  0.00    +0.221 C 
ATOM     16  ND2 ASN A   1     -17.738 -24.741  10.436  0.00  0.00    -0.329 N 
ATOM     17 HD21 ASN A   1     -17.980 -23.746  10.618  0.00  0.00    +0.145 HD
ATOM     18 HD22 ASN A   1     -16.745 -25.049  10.468  0.00  0.00    +0.145 HD
ATOM     19  OD1 ASN A   1     -19.861 -25.265  10.123  0.00  0.00    -0.275 OA
ENDBRANCH  14  15
ENDBRANCH  11  14
ENDBRANCH   7  11
ENDBRANCH   6   8
BRANCH   6  20
ATOM     20  CB  VAL A   2     -17.834 -32.372  11.940  0.00  0.00    +0.027 C 
ATOM     21  CG2 VAL A   2     -17.693 -33.890  11.697  0.00  0.00    +0.002 C 
ATOM     22  CG1 VAL A   2     -16.538 -31.635  11.580  0.00  0.00    +0.002 C 
ENDBRANCH   6  20
ENDBRANCH   2   6
ENDBRANCH   1   4
BRANCH   1  23
ATOM     23  C   LEU A   3     -21.569 -35.684  11.018  0.00  0.00    +0.241 C 
ATOM     24  N   VAL A   4     -22.440 -36.495  11.637  0.00  0.00    -0.297 N 
ATOM     25  H   VAL A   4     -23.343 -36.090  11.955  0.00  0.00    +0.150 HD
ATOM     26  O   LEU A   3     -20.508 -36.078  10.545  0.00  0.00    -0.273 OA
BRANCH  24  27
ATOM     27  CA  VAL A   4     -22.198 -37.909  11.891  0.00  0.00    +0.149 C 
BRANCH  27  28
ATOM     28  C   VAL A   4     -23.158 -38.758  11.049  0.00  0.00    +0.241 C 
ATOM     29  O   VAL A   4     -24.377 -38.624  11.179  0.00  0.00    -0.273 OA
ATOM     30  N   SER A   5     -22.607 -39.585  10.160  0.00  0.00    -0.296 N 
ATOM     31  H   SER A   5     -21.572 -39.578  10.058  0.00  0.00    +0.150 HD
BRANCH  30  32
ATOM     32  CA  SER A   5     -23.387 -40.511   9.311  0.00  0.00    +0.166 C 
BRANCH  32  33
ATOM     33  CB  SER A   5     -23.673 -41.805  10.064  0.00  0.00    +0.229 C 
ATOM     34  OG  SER A   5     -24.727 -42.413   9.856  0.00  0.00    -0.286 OA
ENDBRANCH  32  33
BRANCH  32  35
ATOM     35  C   SER A   5     -22.624 -40.855   8.036  0.00  0.00    +0.165 C 
BRANCH  35  36
ATOM     36  O   SER A   5     -22.548 -39.679   7.255  0.00  0.00    -0.380 OA
ATOM     37  H   SER A   5     -23.463 -39.369   7.038  0.00  0.00    +0.211 HD
ENDBRANCH  35  36
ENDBRANCH  32  35
ENDBRANCH  30  32
ENDBRANCH  27  28
BRANCH  27  38
ATOM     38  CB  VAL A   4     -22.320 -38.223  13.421  0.00  0.00    +0.027 C 
ATOM     39  CG2 VAL A   4     -21.521 -37.226  14.255  0.00  0.00    +0.002 C 
ATOM     40  CG1 VAL A   4     -21.875 -39.644  13.737  0.00  0.00    +0.002 C 
ENDBRANCH  27  38
ENDBRANCH  24  27
ENDBRANCH   1  23
BRANCH   1  41
ATOM     41  CB  LEU A   3     -23.090 -34.038   9.827  0.00  0.00    +0.029 C 
BRANCH  41  42
ATOM     42  CG  LEU A   3     -23.573 -32.602   9.590  0.00  0.00    +0.002 C 
ATOM     43  CD2 LEU A   3     -24.305 -32.033  10.774  0.00  0.00    +0.000 C 
ATOM     44  CD1 LEU A   3     -24.559 -32.570   8.467  0.00  0.00    +0.000 C 
ENDBRANCH  41  42
ENDBRANCH   1  41
TORSDOF 18
REMARK  Name = ../refined-set-2016/4k9y/4k9y_pocket.pdb
REMARK  281 active torsions:
REMARK  status: ('A' for Active; 'I' for Inactive)
REMARK    1  A    between atoms: _1  and  _3
REMARK    2  A    between atoms: _3  and  _4
REMARK    3  A    between atoms: _3  and  _6
REMARK    4  A    between atoms: _6  and  _7
REMARK    5  A    between atoms: _7  and  _8
REMARK    6  A    between atoms: _8  and  _9
REMARK    7  A    between atoms: _18  and  _20
REMARK    8  A    between atoms: _20  and  _21
REMARK    9  A    between atoms: _20  and  _23
REMARK   10  A    between atoms: _23  and  _24
REMARK   11  A    between atoms: _27  and  _29
REMARK   12  A    between atoms: _29  and  _30
REMARK   13  A    between atoms: _32  and  _34
REMARK   14  A    between atoms: _34  and  _35
REMARK   15  A    between atoms: _34  and  _37
REMARK   16  A    between atoms: _37  and  _38
REMARK   17  A    between atoms: _38  and  _39
REMARK   18  A    between atoms: _42  and  _44
REMARK   19  A    between atoms: _44  and  _45
REMARK   20  A    between atoms: _44  and  _47
REMARK   21  A    between atoms: _47  and  _48
REMARK   22  A    between atoms: _54  and  _56
REMARK   23  A    between atoms: _56  and  _57
REMARK   24  A    between atoms: _56  and  _59
REMARK   25  A    between atoms: _62  and  _64
REMARK   26  A    between atoms: _64  and  _65
REMARK   27  A    between atoms: _64  and  _67
REMARK   28  A    between atoms: _67  and  _68
REMARK   29  A    between atoms: _73  and  _75
REMARK   30  A    between atoms: _75  and  _76
REMARK   31  A    between atoms: _75  and  _78
REMARK   32  A    between atoms: _78  and  _79
REMARK   33  A    between atoms: _79  and  _80
REMARK   34  A    between atoms: _85  and  _87
REMARK   35  A    between atoms: _87  and  _88
REMARK   36  A    between atoms: _91  and  _93
REMARK   37  A    between atoms: _93  and  _94
REMARK   38  A    between atoms: _93  and  _96
REMARK   39  A    between atoms: _99  and  _101
REMARK   40  A    between atoms: _101  and  _102
REMARK   41  A    between atoms: _105  and  _107
REMARK   42  A    between atoms: _107  and  _108
REMARK   43  A    between atoms: _107  and  _110
REMARK   44  A    between atoms: _110  and  _111
REMARK   45  A    between atoms: _114  and  _116
REMARK   46  A    between atoms: _116  and  _117
REMARK   47  A    between atoms: _116  and  _119
REMARK   48  A    between atoms: _119  and  _120
REMARK   49  A    between atoms: _120  and  _121
REMARK   50  A    between atoms: _121  and  _122
REMARK   51  A    between atoms: _122  and  _123
REMARK   52  A    between atoms: _127  and  _129
REMARK   53  A    between atoms: _129  and  _130
REMARK   54  A    between atoms: _129  and  _132
REMARK   55  A    between atoms: _132  and  _133
REMARK   56  A    between atoms: _133  and  _134
REMARK   57  A    between atoms: _134  and  _135
REMARK   58  A    between atoms: _135  and  _136
REMARK   59  A    between atoms: _140  and  _142
REMARK   60  A    between atoms: _142  and  _143
REMARK   61  A    between atoms: _142  and  _145
REMARK   62  A    between atoms: _145  and  _146
REMARK   63  A    between atoms: _152  and  _154
REMARK   64  A    between atoms: _154  and  _155
REMARK   65  A    between atoms: _154  and  _157
REMARK   66  A    between atoms: _157  and  _158
REMARK   67  A    between atoms: _161  and  _163
REMARK   68  A    between atoms: _163  and  _164
REMARK   69  A    between atoms: _163  and  _166
REMARK   70  A    between atoms: _166  and  _167
REMARK   71  A    between atoms: _167  and  _168
REMARK   72  A    between atoms: _173  and  _175
REMARK   73  A    between atoms: _175  and  _176
REMARK   74  A    between atoms: _175  and  _178
REMARK   75  A    between atoms: _178  and  _179
REMARK   76  A    between atoms: _179  and  _180
REMARK   77  A    between atoms: _183  and  _185
REMARK   78  A    between atoms: _185  and  _186
REMARK   79  A    between atoms: _189  and  _191
REMARK   80  A    between atoms: _191  and  _192
REMARK   81  A    between atoms: _191  and  _194
REMARK   82  A    between atoms: _194  and  _195
REMARK   83  A    between atoms: _198  and  _200
REMARK   84  A    between atoms: _200  and  _201
REMARK   85  A    between atoms: _200  and  _203
REMARK   86  A    between atoms: _203  and  _204
REMARK   87  A    between atoms: _207  and  _209
REMARK   88  A    between atoms: _209  and  _210
REMARK   89  A    between atoms: _209  and  _212
REMARK   90  A    between atoms: _212  and  _213
REMARK   91  A    between atoms: _213  and  _214
REMARK   92  A    between atoms: _216  and  _218
REMARK   93  A    between atoms: _218  and  _219
REMARK   94  A    between atoms: _218  and  _221
REMARK   95  A    between atoms: _221  and  _222
REMARK   96  A    between atoms: _222  and  _223
REMARK   97  A    between atoms: _223  and  _224
REMARK   98  A    between atoms: _233  and  _235
REMARK   99  A    between atoms: _235  and  _236
REMARK  100  A    between atoms: _235  and  _238
REMARK  101  A    between atoms: _238  and  _239
REMARK  102  A    between atoms: _239  and  _240
REMARK  103  A    between atoms: _245  and  _247
REMARK  104  A    between atoms: _247  and  _248
REMARK  105  A    between atoms: _247  and  _250
REMARK  106  A    between atoms: _250  and  _251
REMARK  107  A    between atoms: _257  and  _259
REMARK  108  A    between atoms: _259  and  _260
REMARK  109  A    between atoms: _259  and  _262
REMARK  110  A    between atoms: _262  and  _263
REMARK  111  A    between atoms: _266  and  _268
REMARK  112  A    between atoms: _268  and  _269
REMARK  113  A    between atoms: _268  and  _271
REMARK  114  A    between atoms: _271  and  _272
REMARK  115  A    between atoms: _277  and  _279
REMARK  116  A    between atoms: _279  and  _280
REMARK  117  A    between atoms: _279  and  _282
REMARK  118  A    between atoms: _282  and  _283
REMARK  119  A    between atoms: _286  and  _288
REMARK  120  A    between atoms: _288  and  _289
REMARK  121  A    between atoms: _288  and  _291
REMARK  122  A    between atoms: _294  and  _296
REMARK  123  A    between atoms: _296  and  _297
REMARK  124  A    between atoms: _296  and  _299
REMARK  125  A    between atoms: _299  and  _300
REMARK  126  A    between atoms: _300  and  _301
REMARK  127  A    between atoms: _301  and  _302
REMARK  128  A    between atoms: _302  and  _303
REMARK  129  A    between atoms: _307  and  _309
REMARK  130  A    between atoms: _309  and  _310
REMARK  131  A    between atoms: _309  and  _312
REMARK  132  A    between atoms: _312  and  _313
REMARK  133  A    between atoms: _316  and  _318
REMARK  134  A    between atoms: _318  and  _319
REMARK  135  A    between atoms: _318  and  _321
REMARK  136  A    between atoms: _321  and  _322
REMARK  137  A    between atoms: _325  and  _327
REMARK  138  A    between atoms: _327  and  _328
REMARK  139  A    between atoms: _327  and  _330
REMARK  140  A    between atoms: _330  and  _331
REMARK  141  A    between atoms: _334  and  _336
REMARK  142  A    between atoms: _336  and  _337
REMARK  143  A    between atoms: _336  and  _339
REMARK  144  A    between atoms: _339  and  _340
REMARK  145  A    between atoms: _340  and  _341
REMARK  146  A    between atoms: _343  and  _345
REMARK  147  A    between atoms: _345  and  _346
REMARK  148  A    between atoms: _345  and  _348
REMARK  149  A    between atoms: _348  and  _349
REMARK  150  A    between atoms: _349  and  _350
REMARK  151  A    between atoms: _353  and  _355
REMARK  152  A    between atoms: _355  and  _356
REMARK  153  A    between atoms: _355  and  _358
REMARK  154  A    between atoms: _358  and  _359
REMARK  155  A    between atoms: _362  and  _364
REMARK  156  A    between atoms: _364  and  _365
REMARK  157  A    between atoms: _364  and  _367
REMARK  158  A    between atoms: _369  and  _371
REMARK  159  A    between atoms: _371  and  _372
REMARK  160  A    between atoms: _371  and  _374
REMARK  161  A    between atoms: _374  and  _375
REMARK  162  A    between atoms: _378  and  _380
REMARK  163  A    between atoms: _380  and  _381
REMARK  164  A    between atoms: _380  and  _383
REMARK  165  A    between atoms: _383  and  _384
REMARK  166  A    between atoms: _387  and  _389
REMARK  167  A    between atoms: _389  and  _390
REMARK  168  A    between atoms: _392  and  _394
REMARK  169  A    between atoms: _394  and  _395
REMARK  170  A    between atoms: _394  and  _397
REMARK  171  A    between atoms: _397  and  _398
REMARK  172  A    between atoms: _398  and  _399
REMARK  173  A    between atoms: _402  and  _404
REMARK  174  A    between atoms: _404  and  _405
REMARK  175  A    between atoms: _408  and  _410
REMARK  176  A    between atoms: _410  and  _411
REMARK  177  A    between atoms: _410  and  _413
REMARK  178  A    between atoms: _413  and  _414
REMARK  179  A    between atoms: _417  and  _419
REMARK  180  A    between atoms: _419  and  _420
REMARK  181  A    between atoms: _419  and  _422
REMARK  182  A    between atoms: _422  and  _423
REMARK  183  A    between atoms: _428  and  _429
REMARK  184  A    between atoms: _431  and  _433
REMARK  185  A    between atoms: _433  and  _434
REMARK  186  A    between atoms: _433  and  _436
REMARK  187  A    between atoms: _436  and  _437
REMARK  188  A    between atoms: _440  and  _442
REMARK  189  A    between atoms: _442  and  _443
REMARK  190  A    between atoms: _442  and  _445
REMARK  191  A    between atoms: _445  and  _446
REMARK  192  A    between atoms: _452  and  _454
REMARK  193  A    between atoms: _454  and  _455
REMARK  194  A    between atoms: _454  and  _457
REMARK  195  A    between atoms: _460  and  _462
REMARK  196  A    between atoms: _462  and  _463
REMARK  197  A    between atoms: _462  and  _465
REMARK  198  A    between atoms: _465  and  _466
REMARK  199  A    between atoms: _471  and  _473
REMARK  200  A    between atoms: _473  and  _474
REMARK  201  A    between atoms: _473  and  _476
REMARK  202  A    between atoms: _476  and  _477
REMARK  203  A    between atoms: _477  and  _478
REMARK  204  A    between atoms: _478  and  _479
REMARK  205  A    between atoms: _488  and  _490
REMARK  206  A    between atoms: _490  and  _491
REMARK  207  A    between atoms: _490  and  _493
REMARK  208  A    between atoms: _493  and  _494
REMARK  209  A    between atoms: _497  and  _499
REMARK  210  A    between atoms: _499  and  _500
REMARK  211  A    between atoms: _499  and  _502
REMARK  212  A    between atoms: _502  and  _503
REMARK  213  A    between atoms: _506  and  _508
REMARK  214  A    between atoms: _508  and  _509
REMARK  215  A    between atoms: _508  and  _511
REMARK  216  A    between atoms: _511  and  _512
REMARK  217  A    between atoms: _517  and  _519
REMARK  218  A    between atoms: _519  and  _520
REMARK  219  A    between atoms: _519  and  _522
REMARK  220  A    between atoms: _525  and  _527
REMARK  221  A    between atoms: _527  and  _528
REMARK  222  A    between atoms: _527  and  _530
REMARK  223  A    between atoms: _530  and  _531
REMARK  224  A    between atoms: _534  and  _536
REMARK  225  A    between atoms: _536  and  _537
REMARK  226  A    between atoms: _536  and  _539
REMARK  227  A    between atoms: _542  and  _544
REMARK  228  A    between atoms: _544  and  _545
REMARK  229  A    between atoms: _544  and  _547
REMARK  230  A    between atoms: _547  and  _548
REMARK  231  A    between atoms: _550  and  _552
REMARK  232  A    between atoms: _552  and  _553
REMARK  233  A    between atoms: _552  and  _555
REMARK  234  A    between atoms: _555  and  _556
REMARK  235  A    between atoms: _556  and  _557
REMARK  236  A    between atoms: _557  and  _558
REMARK  237  A    between atoms: _558  and  _559
REMARK  238  A    between atoms: _563  and  _565
REMARK  239  A    between atoms: _565  and  _566
REMARK  240  A    between atoms: _565  and  _568
REMARK  241  A    between atoms: _568  and  _569
REMARK  242  A    between atoms: _572  and  _574
REMARK  243  A    between atoms: _574  and  _575
REMARK  244  A    between atoms: _577  and  _579
REMARK  245  A    between atoms: _579  and  _580
REMARK  246  A    between atoms: _579  and  _582
REMARK  247  A    between atoms: _582  and  _583
REMARK  248  A    between atoms: _586  and  _588
REMARK  249  A    between atoms: _588  and  _589
REMARK  250  A    between atoms: _588  and  _591
REMARK  251  A    between atoms: _591  and  _592
REMARK  252  A    between atoms: _598  and  _600
REMARK  253  A    between atoms: _600  and  _601
REMARK  254  A    between atoms: _603  and  _605
REMARK  255  A    between atoms: _605  and  _606
REMARK  256  A    between atoms: _605  and  _608
REMARK  257  A    between atoms: _608  and  _609
REMARK  258  A    between atoms: _612  and  _614
REMARK  259  A    between atoms: _614  and  _615
REMARK  260  A    between atoms: _614  and  _617
REMARK  261  A    between atoms: _617  and  _618
REMARK  262  A    between atoms: _620  and  _622
REMARK  263  A    between atoms: _622  and  _623
REMARK  264  A    between atoms: _622  and  _625
REMARK  265  A    between atoms: _625  and  _626
REMARK  266  A    between atoms: _626  and  _627
REMARK  267  A    between atoms: _627  and  _628
REMARK  268  A    between atoms: _637  and  _639
REMARK  269  A    between atoms: _639  and  _640
REMARK  270  A    between atoms: _639  and  _642
REMARK  271  A    between atoms: _642  and  _643
REMARK  272  A    between atoms: _648  and  _649
REMARK  273  A    between atoms: _651  and  _653
REMARK  274  A    between atoms: _653  and  _654
REMARK  275  A    between atoms: _653  and  _656
REMARK  276  A    between atoms: _656  and  _657
REMARK  277  A    between atoms: _657  and  _658
REMARK  278  A    between atoms: _660  and  _662
REMARK  279  A    between atoms: _662  and  _663
REMARK  280  A    between atoms: _662  and  _665
REMARK  281  A    between atoms: _665  and  _666
REMARK                            x       y       z     vdW  Elec       q    Type
REMARK                         _______ _______ _______ _____ _____    ______ ____
ROOT
ATOM      1  C   GLY A   6     -24.441 -19.237   7.344  0.00  0.00    +0.243 C 
ATOM      2  N   LEU A   7     -25.162 -18.212   7.833  0.00  0.00    -0.297 N 
ATOM      3  H   LEU A   7     -25.420 -18.246   8.840  0.00  0.00    +0.150 HD
ATOM      4  O   GLY A   6     -24.067 -19.321   6.172  0.00  0.00    -0.273 OA
ENDROOT
BRANCH   2   5
ATOM      5  CA  LEU A   7     -25.611 -17.055   7.063  0.00  0.00    +0.149 C 
BRANCH   5   6
ATOM      6  C   LEU A   7     -24.435 -16.354   6.323  0.00  0.00    +0.241 C 
ATOM      7  N   SER A   8     -23.265 -16.193   6.974  0.00  0.00    -0.295 N 
ATOM      8  H   SER A   8     -23.180 -16.548   7.948  0.00  0.00    +0.150 HD
ATOM      9  O   LEU A   7     -24.595 -15.994   5.159  0.00  0.00    -0.273 OA
BRANCH   7  10
ATOM     10  CA  SER A   8     -22.095 -15.528   6.350  0.00  0.00    +0.178 C 
BRANCH  10  11
ATOM     11  C   SER A   8     -21.630 -16.192   5.048  0.00  0.00    +0.243 C 
ATOM     12  N   ARG A   9     -21.855 -17.513   4.886  0.00  0.00    -0.297 N 
ATOM     13  H   ARG A   9     -22.308 -18.047   5.655  0.00  0.00    +0.150 HD
ATOM     14  O   SER A   8     -21.112 -15.499   4.179  0.00  0.00    -0.273 OA
BRANCH  12  15
ATOM     15  CA  ARG A   9     -21.476 -18.218   3.649  0.00  0.00    +0.149 C 
BRANCH  15  16
ATOM     16  C   ARG A   9     -22.217 -17.695   2.395  0.00  0.00    +0.241 C 
ATOM     17  N   TYR A  10     -23.453 -17.192   2.563  0.00  0.00    -0.297 N 
ATOM     18  H   TYR A  10     -23.863 -17.165   3.518  0.00  0.00    +0.150 HD
ATOM     19  O   ARG A   9     -21.671 -17.747   1.296  0.00  0.00    -0.273 OA
BRANCH  17  20
ATOM     20  CA  TYR A  10     -24.238 -16.681   1.434  0.00  0.00    +0.153 C 
BRANCH  20  21
ATOM     21  C   TYR A  10     -23.871 -15.266   1.044  0.00  0.00    +0.241 C 
ATOM     22  N   MET A  11     -23.331 -14.503   2.012  0.00  0.00    -0.298 N 
ATOM     23  H   MET A  11     -23.164 -14.940   2.941  0.00  0.00    +0.150 HD
ATOM     24  O   TYR A  10     -24.143 -14.853  -0.094  0.00  0.00    -0.273 OA
BRANCH  22  25
ATOM     25  CA  MET A  11     -22.964 -13.100   1.841  0.00  0.00    +0.138 C 
BRANCH  25  26
ATOM     26  C   MET A  11     -21.720 -12.890   0.972  0.00  0.00    +0.227 C 
ATOM     27  O   MET A  11     -20.872 -13.785   0.875  0.00  0.00    -0.286 OA
ENDBRANCH  25  26
BRANCH  25  28
ATOM     28  CB  MET A  11     -22.810 -12.401   3.201  0.00  0.00    +0.039 C 
BRANCH  28  29
ATOM     29  CG  MET A  11     -24.024 -12.535   4.086  0.00  0.00    +0.060 C 
BRANCH  29  30
ATOM     30  SD  MET A  11     -25.553 -12.040   3.244  0.00  0.00    -0.139 S 
ATOM     31  CE  MET A  11     -25.538 -10.233   3.570  0.00  0.00    +0.069 C 
ENDBRANCH  29  30
ENDBRANCH  28  29
ENDBRANCH  25  28
ENDBRANCH  22  25
ENDBRANCH  20  21
BRANCH  20  32
ATOM     32  CB  TYR A  10     -25.718 -16.705   1.779  0.00  0.00    +0.055 C 
BRANCH  32  33
ATOM     33  CG  TYR A  10     -26.275 -18.100   1.881  0.00  0.00    -0.020 A 
ATOM     34  CD2 TYR A  10     -26.553 -18.667   3.118  0.00  0.00    -0.001 A 
ATOM     35  CE2 TYR A  10     -27.097 -19.945   3.222  0.00  0.00    +0.036 A 
ATOM     36  CZ  TYR A  10     -27.349 -20.681   2.073  0.00  0.00    +0.134 A 
ATOM     37  CE1 TYR A  10     -27.049 -20.148   0.829  0.00  0.00    +0.036 A 
ATOM     38  CD1 TYR A  10     -26.532 -18.856   0.738  0.00  0.00    -0.001 A 
BRANCH  36  39
ATOM     39  OH  TYR A  10     -27.942 -21.913   2.189  0.00  0.00    -0.506 OA
ATOM     40  HH  TYR A  10     -28.054 -22.310   1.289  0.00  0.00    +0.292 HD
ENDBRANCH  36  39
ENDBRANCH  32  33
ENDBRANCH  20  32
ENDBRANCH  17  20
ENDBRANCH  15  16
BRANCH  15  41
ATOM     41  CB  ARG A   9     -21.671 -19.742   3.797  0.00  0.00    +0.033 C 
BRANCH  41  42
ATOM     42  CG  ARG A   9     -20.558 -20.460   4.561  0.00  0.00    +0.045 C 
BRANCH  42  43
ATOM     43  CD  ARG A   9     -20.426 -19.978   6.000  0.00  0.00    +0.174 C 
BRANCH  43  44
ATOM     44  NE  ARG A   9     -19.561 -20.840   6.799  0.00  0.00    -0.265 N 
ATOM     45  CZ  ARG A   9     -19.295 -20.646   8.084  0.00  0.00    +0.342 C 
ATOM     46  NH2 ARG A   9     -18.552 -21.518   8.751  0.00  0.00    -0.292 N 
ATOM     47 HH21 ARG A   9     -18.346 -21.362   9.758  0.00  0.00    +0.255 HD
ATOM     48 HH22 ARG A   9     -18.175 -22.358   8.267  0.00  0.00    +0.255 HD
ATOM     49  NH1 ARG A   9     -19.791 -19.588   8.721  0.00  0.00    -0.292 N 
ATOM     50 HH11 ARG A   9     -19.579 -19.441   9.729  0.00  0.00    +0.255 HD
ATOM     51 HH12 ARG A   9     -20.391 -18.908   8.211  0.00  0.00    +0.255 HD
ATOM     52  HE  ARG A   9     -19.125 -21.660   6.331  0.00  0.00    +0.259 HD
ENDBRANCH  43  44
ENDBRANCH  42  43
ENDBRANCH  41  42
ENDBRANCH  15  41
ENDBRANCH  12  15
ENDBRANCH  10  11
BRANCH  10  53
ATOM     53  CB  SER A   8     -20.922 -15.441   7.327  0.00  0.00    +0.166 C 
BRANCH  53  54
ATOM     54  OG  SER A   8     -20.506 -16.735   7.737  0.00  0.00    -0.380 OA
ATOM     55  H   SER A   8     -21.259 -17.196   8.184  0.00  0.00    +0.211 HD
ENDBRANCH  53  54
ENDBRANCH  10  53
ENDBRANCH   7  10
ENDBRANCH   5   6
BRANCH   5  56
ATOM     56  CB  LEU A   7     -26.345 -16.063   8.006  0.00  0.00    +0.029 C 
BRANCH  56  57
ATOM     57  CG  LEU A   7     -26.802 -14.694   7.436  0.00  0.00    +0.002 C 
ATOM     58  CD2 LEU A   7     -27.769 -14.018   8.370  0.00  0.00    +0.000 C 
ATOM     59  CD1 LEU A   7     -27.538 -14.859   6.168  0.00  0.00    +0.000 C 
ENDBRANCH  56  57
ENDBRANCH   5  56
ENDBRANCH   2   5
BRANCH   1  60
ATOM     60  CA  GLY A   6     -24.066 -20.286   8.356  0.00  0.00    +0.176 C 
BRANCH  60  63
ATOM     61  C   PHE A   5     -22.979 -22.437   8.130  0.00  0.00    +0.241 C 
ATOM     62  O   PHE A   5     -21.952 -22.000   8.643  0.00  0.00    -0.273 OA
ATOM     63  N   GLY A   6     -24.043 -21.674   7.895  0.00  0.00    -0.295 N 
ATOM     64  H   GLY A   6     -24.859 -22.065   7.383  0.00  0.00    +0.150 HD
BRANCH  61  65
ATOM     65  CA  PHE A   5     -23.074 -23.914   7.755  0.00  0.00    +0.153 C 
BRANCH  65  67
ATOM     66  C   ASP A   4     -21.586 -25.327   6.411  0.00  0.00    +0.241 C 
ATOM     67  N   PHE A   5     -21.756 -24.476   7.449  0.00  0.00    -0.297 N 
ATOM     68  H   PHE A   5     -20.939 -24.217   8.038  0.00  0.00    +0.150 HD
ATOM     69  O   ASP A   4     -22.498 -25.651   5.653  0.00  0.00    -0.273 OA
BRANCH  66  70
ATOM     70  CA  ASP A   4     -20.221 -25.964   6.240  0.00  0.00    +0.160 C 
BRANCH  70  73
ATOM     71  C   GLY A   3     -19.415 -28.279   6.094  0.00  0.00    +0.243 C 
ATOM     72  O   GLY A   3     -18.290 -27.967   6.507  0.00  0.00    -0.273 OA
ATOM     73  N   ASP A   4     -20.393 -27.375   5.893  0.00  0.00    -0.296 N 
ATOM     74  H   ASP A   4     -21.295 -27.688   5.480  0.00  0.00    +0.150 HD
BRANCH  71  75
ATOM     75  CA  GLY A   3     -19.734 -29.718   5.756  0.00  0.00    +0.176 C 
BRANCH  75  77
ATOM     76  C   LEU A   2     -18.255 -31.644   5.964  0.00  0.00    +0.241 C 
ATOM     77  N   GLY A   3     -18.847 -30.595   6.499  0.00  0.00    -0.295 N 
ATOM     78  H   GLY A   3     -18.670 -30.385   7.502  0.00  0.00    +0.150 HD
ATOM     79  O   LEU A   2     -18.457 -32.015   4.804  0.00  0.00    -0.273 OA
BRANCH  76  80
ATOM     80  CA  LEU A   2     -17.243 -32.380   6.884  0.00  0.00    +0.149 C 
BRANCH  80  83
ATOM     81  C   LYS A   1     -18.399 -34.424   7.585  0.00  0.00    +0.238 C 
ATOM     82  O   LYS A   1     -19.124 -33.842   8.390  0.00  0.00    -0.274 OA
ATOM     83  N   LEU A   2     -17.469 -33.814   6.860  0.00  0.00    -0.297 N 
ATOM     84  H   LEU A   2     -16.869 -34.396   6.241  0.00  0.00    +0.150 HD
BRANCH  81  85
ATOM     85  CA  LYS A   1     -18.530 -35.905   7.358  0.00  0.00    +0.145 C 
BRANCH  85  86
ATOM     86  N   LYS A   1     -18.638 -36.659   8.609  0.00  0.00    -0.238 NA
ATOM     87  H   LYS A   1     -19.264 -36.295   9.355  0.00  0.00    +0.142 HD
ENDBRANCH  85  86
BRANCH  85  88
ATOM     88  CB  LYS A   1     -19.715 -36.228   6.397  0.00  0.00    +0.026 C 
BRANCH  88  89
ATOM     89  CG  LYS A   1     -19.656 -37.697   5.934  0.00  0.00    -0.000 C 
BRANCH  89  90
ATOM     90  CD  LYS A   1     -20.586 -38.075   4.831  0.00  0.00    -0.024 C 
BRANCH  90  91
ATOM     91  CE  LYS A   1     -20.556 -39.588   4.720  0.00  0.00    -0.086 C 
BRANCH  91  92
ATOM     92  NZ  LYS A   1     -20.610 -40.051   3.310  0.00  0.00    +0.380 N 
ATOM     93  HZ1 LYS A   1     -20.587 -41.090   3.287  0.00  0.00    -0.089 HD
ATOM     94  HZ2 LYS A   1     -21.489 -39.712   2.869  0.00  0.00    -0.089 HD
ATOM     95  HZ3 LYS A   1     -19.792 -39.673   2.791  0.00  0.00    -0.089 HD
ENDBRANCH  91  92
ENDBRANCH  90  91
ENDBRANCH  89  90
ENDBRANCH  88  89
ENDBRANCH  85  88
ENDBRANCH  81  85
ENDBRANCH  80  83
BRANCH  80  96
ATOM     96  CB  LEU A   2     -15.812 -32.061   6.403  0.00  0.00    +0.029 C 
BRANCH  96  97
ATOM     97  CG  LEU A   2     -15.412 -30.557   6.381  0.00  0.00    +0.002 C 
ATOM     98  CD2 LEU A   2     -15.332 -29.994   7.806  0.00  0.00    +0.000 C 
ATOM     99  CD1 LEU A   2     -14.028 -30.380   5.706  0.00  0.00    +0.000 C 
ENDBRANCH  96  97
ENDBRANCH  80  96
ENDBRANCH  76  80
ENDBRANCH  75  77
ENDBRANCH  71  75
ENDBRANCH  70  73
BRANCH  70 100
ATOM    100  CB  ASP A   4     -19.377 -25.182   5.233  0.00  0.00    +0.143 C 
BRANCH 100 101
ATOM    101  CG  ASP A   4     -18.806 -23.911   5.854  0.00  0.00    +0.367 C 
ATOM    102  OD2 ASP A   4     -18.784 -23.814   7.102  0.00  0.00    -0.246 OA
ATOM    103  OD1 ASP A   4     -18.374 -23.022   5.096  0.00  0.00    -0.246 OA
ENDBRANCH 100 101
ENDBRANCH  70 100
ENDBRANCH  66  70
ENDBRANCH  65  67
BRANCH  65 104
ATOM    104  CB  PHE A   5     -23.697 -24.730   8.931  0.00  0.00    +0.055 C 
BRANCH 104 105
ATOM    105  CG  PHE A   5     -23.758 -26.225   8.674  0.00  0.00    -0.020 A 
ATOM    106  CD2 PHE A   5     -22.690 -27.057   9.028  0.00  0.00    -0.004 A 
ATOM    107  CE2 PHE A   5     -22.689 -28.421   8.690  0.00  0.00    -0.000 A 
ATOM    108  CZ  PHE A   5     -23.775 -28.965   8.031  0.00  0.00    -0.000 A 
ATOM    109  CE1 PHE A   5     -24.854 -28.160   7.687  0.00  0.00    -0.000 A 
ATOM    110  CD1 PHE A   5     -24.833 -26.787   7.984  0.00  0.00    -0.004 A 
ENDBRANCH 104 105
ENDBRANCH  65 104
ENDBRANCH  61  65
ENDBRANCH  60  63
ENDBRANCH   1  60
TORSDOF 47
REMARK  Name = ../refined-set-2016/4k9y/4k9y_pocket.pdb
REMARK  281 active torsions:
REMARK  status: ('A' for Active; 'I' for Inactive)
REMARK    1  A    between atoms: _1  and  _3
REMARK    2  A    between atoms: _3  and  _4
REMARK    3  A    between atoms: _3  and  _6
REMARK    4  A    between atoms: _6  and  _7
REMARK    5  A    between atoms: _7  and  _8
REMARK    6  A    between atoms: _8  and  _9
REMARK    7  A    between atoms: _18  and  _20
REMARK    8  A    between atoms: _20  and  _21
REMARK    9  A    between atoms: _20  and  _23
REMARK   10  A    between atoms: _23  and  _24
REMARK   11  A    between atoms: _27  and  _29
REMARK   12  A    between atoms: _29  and  _30
REMARK   13  A    between atoms: _32  and  _34
REMARK   14  A    between atoms: _34  and  _35
REMARK   15  A    between atoms: _34  and  _37
REMARK   16  A    between atoms: _37  and  _38
REMARK   17  A    between atoms: _38  and  _39
REMARK   18  A    between atoms: _42  and  _44
REMARK   19  A    between atoms: _44  and  _45
REMARK   20  A    between atoms: _44  and  _47
REMARK   21  A    between atoms: _47  and  _48
REMARK   22  A    between atoms: _54  and  _56
REMARK   23  A    between atoms: _56  and  _57
REMARK   24  A    between atoms: _56  and  _59
REMARK   25  A    between atoms: _62  and  _64
REMARK   26  A    between atoms: _64  and  _65
REMARK   27  A    between atoms: _64  and  _67
REMARK   28  A    between atoms: _67  and  _68
REMARK   29  A    between atoms: _73  and  _75
REMARK   30  A    between atoms: _75  and  _76
REMARK   31  A    between atoms: _75  and  _78
REMARK   32  A    between atoms: _78  and  _79
REMARK   33  A    between atoms: _79  and  _80
REMARK   34  A    between atoms: _85  and  _87
REMARK   35  A    between atoms: _87  and  _88
REMARK   36  A    between atoms: _91  and  _93
REMARK   37  A    between atoms: _93  and  _94
REMARK   38  A    between atoms: _93  and  _96
REMARK   39  A    between atoms: _99  and  _101
REMARK   40  A    between atoms: _101  and  _102
REMARK   41  A    between atoms: _105  and  _107
REMARK   42  A    between atoms: _107  and  _108
REMARK   43  A    between atoms: _107  and  _110
REMARK   44  A    between atoms: _110  and  _111
REMARK   45  A    between atoms: _114  and  _116
REMARK   46  A    between atoms: _116  and  _117
REMARK   47  A    between atoms: _116  and  _119
REMARK   48  A    between atoms: _119  and  _120
REMARK   49  A    between atoms: _120  and  _121
REMARK   50  A    between atoms: _121  and  _122
REMARK   51  A    between atoms: _122  and  _123
REMARK   52  A    between atoms: _127  and  _129
REMARK   53  A    between atoms: _129  and  _130
REMARK   54  A    between atoms: _129  and  _132
REMARK   55  A    between atoms: _132  and  _133
REMARK   56  A    between atoms: _133  and  _134
REMARK   57  A    between atoms: _134  and  _135
REMARK   58  A    between atoms: _135  and  _136
REMARK   59  A    between atoms: _140  and  _142
REMARK   60  A    between atoms: _142  and  _143
REMARK   61  A    between atoms: _142  and  _145
REMARK   62  A    between atoms: _145  and  _146
REMARK   63  A    between atoms: _152  and  _154
REMARK   64  A    between atoms: _154  and  _155
REMARK   65  A    between atoms: _154  and  _157
REMARK   66  A    between atoms: _157  and  _158
REMARK   67  A    between atoms: _161  and  _163
REMARK   68  A    between atoms: _163  and  _164
REMARK   69  A    between atoms: _163  and  _166
REMARK   70  A    between atoms: _166  and  _167
REMARK   71  A    between atoms: _167  and  _168
REMARK   72  A    between atoms: _173  and  _175
REMARK   73  A    between atoms: _175  and  _176
REMARK   74  A    between atoms: _175  and  _178
REMARK   75  A    between atoms: _178  and  _179
REMARK   76  A    between atoms: _179  and  _180
REMARK   77  A    between atoms: _183  and  _185
REMARK   78  A    between atoms: _185  and  _186
REMARK   79  A    between atoms: _189  and  _191
REMARK   80  A    between atoms: _191  and  _192
REMARK   81  A    between atoms: _191  and  _194
REMARK   82  A    between atoms: _194  and  _195
REMARK   83  A    between atoms: _198  and  _200
REMARK   84  A    between atoms: _200  and  _201
REMARK   85  A    between atoms: _200  and  _203
REMARK   86  A    between atoms: _203  and  _204
REMARK   87  A    between atoms: _207  and  _209
REMARK   88  A    between atoms: _209  and  _210
REMARK   89  A    between atoms: _209  and  _212
REMARK   90  A    between atoms: _212  and  _213
REMARK   91  A    between atoms: _213  and  _214
REMARK   92  A    between atoms: _216  and  _218
REMARK   93  A    between atoms: _218  and  _219
REMARK   94  A    between atoms: _218  and  _221
REMARK   95  A    between atoms: _221  and  _222
REMARK   96  A    between atoms: _222  and  _223
REMARK   97  A    between atoms: _223  and  _224
REMARK   98  A    between atoms: _233  and  _235
REMARK   99  A    between atoms: _235  and  _236
REMARK  100  A    between atoms: _235  and  _238
REMARK  101  A    between atoms: _238  and  _239
REMARK  102  A    between atoms: _239  and  _240
REMARK  103  A    between atoms: _245  and  _247
REMARK  104  A    between atoms: _247  and  _248
REMARK  105  A    between atoms: _247  and  _250
REMARK  106  A    between atoms: _250  and  _251
REMARK  107  A    between atoms: _257  and  _259
REMARK  108  A    between atoms: _259  and  _260
REMARK  109  A    between atoms: _259  and  _262
REMARK  110  A    between atoms: _262  and  _263
REMARK  111  A    between atoms: _266  and  _268
REMARK  112  A    between atoms: _268  and  _269
REMARK  113  A    between atoms: _268  and  _271
REMARK  114  A    between atoms: _271  and  _272
REMARK  115  A    between atoms: _277  and  _279
REMARK  116  A    between atoms: _279  and  _280
REMARK  117  A    between atoms: _279  and  _282
REMARK  118  A    between atoms: _282  and  _283
REMARK  119  A    between atoms: _286  and  _288
REMARK  120  A    between atoms: _288  and  _289
REMARK  121  A    between atoms: _288  and  _291
REMARK  122  A    between atoms: _294  and  _296
REMARK  123  A    between atoms: _296  and  _297
REMARK  124  A    between atoms: _296  and  _299
REMARK  125  A    between atoms: _299  and  _300
REMARK  126  A    between atoms: _300  and  _301
REMARK  127  A    between atoms: _301  and  _302
REMARK  128  A    between atoms: _302  and  _303
REMARK  129  A    between atoms: _307  and  _309
REMARK  130  A    between atoms: _309  and  _310
REMARK  131  A    between atoms: _309  and  _312
REMARK  132  A    between atoms: _312  and  _313
REMARK  133  A    between atoms: _316  and  _318
REMARK  134  A    between atoms: _318  and  _319
REMARK  135  A    between atoms: _318  and  _321
REMARK  136  A    between atoms: _321  and  _322
REMARK  137  A    between atoms: _325  and  _327
REMARK  138  A    between atoms: _327  and  _328
REMARK  139  A    between atoms: _327  and  _330
REMARK  140  A    between atoms: _330  and  _331
REMARK  141  A    between atoms: _334  and  _336
REMARK  142  A    between atoms: _336  and  _337
REMARK  143  A    between atoms: _336  and  _339
REMARK  144  A    between atoms: _339  and  _340
REMARK  145  A    between atoms: _340  and  _341
REMARK  146  A    between atoms: _343  and  _345
REMARK  147  A    between atoms: _345  and  _346
REMARK  148  A    between atoms: _345  and  _348
REMARK  149  A    between atoms: _348  and  _349
REMARK  150  A    between atoms: _349  and  _350
REMARK  151  A    between atoms: _353  and  _355
REMARK  152  A    between atoms: _355  and  _356
REMARK  153  A    between atoms: _355  and  _358
REMARK  154  A    between atoms: _358  and  _359
REMARK  155  A    between atoms: _362  and  _364
REMARK  156  A    between atoms: _364  and  _365
REMARK  157  A    between atoms: _364  and  _367
REMARK  158  A    between atoms: _369  and  _371
REMARK  159  A    between atoms: _371  and  _372
REMARK  160  A    between atoms: _371  and  _374
REMARK  161  A    between atoms: _374  and  _375
REMARK  162  A    between atoms: _378  and  _380
REMARK  163  A    between atoms: _380  and  _381
REMARK  164  A    between atoms: _380  and  _383
REMARK  165  A    between atoms: _383  and  _384
REMARK  166  A    between atoms: _387  and  _389
REMARK  167  A    between atoms: _389  and  _390
REMARK  168  A    between atoms: _392  and  _394
REMARK  169  A    between atoms: _394  and  _395
REMARK  170  A    between atoms: _394  and  _397
REMARK  171  A    between atoms: _397  and  _398
REMARK  172  A    between atoms: _398  and  _399
REMARK  173  A    between atoms: _402  and  _404
REMARK  174  A    between atoms: _404  and  _405
REMARK  175  A    between atoms: _408  and  _410
REMARK  176  A    between atoms: _410  and  _411
REMARK  177  A    between atoms: _410  and  _413
REMARK  178  A    between atoms: _413  and  _414
REMARK  179  A    between atoms: _417  and  _419
REMARK  180  A    between atoms: _419  and  _420
REMARK  181  A    between atoms: _419  and  _422
REMARK  182  A    between atoms: _422  and  _423
REMARK  183  A    between atoms: _428  and  _429
REMARK  184  A    between atoms: _431  and  _433
REMARK  185  A    between atoms: _433  and  _434
REMARK  186  A    between atoms: _433  and  _436
REMARK  187  A    between atoms: _436  and  _437
REMARK  188  A    between atoms: _440  and  _442
REMARK  189  A    between atoms: _442  and  _443
REMARK  190  A    between atoms: _442  and  _445
REMARK  191  A    between atoms: _445  and  _446
REMARK  192  A    between atoms: _452  and  _454
REMARK  193  A    between atoms: _454  and  _455
REMARK  194  A    between atoms: _454  and  _457
REMARK  195  A    between atoms: _460  and  _462
REMARK  196  A    between atoms: _462  and  _463
REMARK  197  A    between atoms: _462  and  _465
REMARK  198  A    between atoms: _465  and  _466
REMARK  199  A    between atoms: _471  and  _473
REMARK  200  A    between atoms: _473  and  _474
REMARK  201  A    between atoms: _473  and  _476
REMARK  202  A    between atoms: _476  and  _477
REMARK  203  A    between atoms: _477  and  _478
REMARK  204  A    between atoms: _478  and  _479
REMARK  205  A    between atoms: _488  and  _490
REMARK  206  A    between atoms: _490  and  _491
REMARK  207  A    between atoms: _490  and  _493
REMARK  208  A    between atoms: _493  and  _494
REMARK  209  A    between atoms: _497  and  _499
REMARK  210  A    between atoms: _499  and  _500
REMARK  211  A    between atoms: _499  and  _502
REMARK  212  A    between atoms: _502  and  _503
REMARK  213  A    between atoms: _506  and  _508
REMARK  214  A    between atoms: _508  and  _509
REMARK  215  A    between atoms: _508  and  _511
REMARK  216  A    between atoms: _511  and  _512
REMARK  217  A    between atoms: _517  and  _519
REMARK  218  A    between atoms: _519  and  _520
REMARK  219  A    between atoms: _519  and  _522
REMARK  220  A    between atoms: _525  and  _527
REMARK  221  A    between atoms: _527  and  _528
REMARK  222  A    between atoms: _527  and  _530
REMARK  223  A    between atoms: _530  and  _531
REMARK  224  A    between atoms: _534  and  _536
REMARK  225  A    between atoms: _536  and  _537
REMARK  226  A    between atoms: _536  and  _539
REMARK  227  A    between atoms: _542  and  _544
REMARK  228  A    between atoms: _544  and  _545
REMARK  229  A    between atoms: _544  and  _547
REMARK  230  A    between atoms: _547  and  _548
REMARK  231  A    between atoms: _550  and  _552
REMARK  232  A    between atoms: _552  and  _553
REMARK  233  A    between atoms: _552  and  _555
REMARK  234  A    between atoms: _555  and  _556
REMARK  235  A    between atoms: _556  and  _557
REMARK  236  A    between atoms: _557  and  _558
REMARK  237  A    between atoms: _558  and  _559
REMARK  238  A    between atoms: _563  and  _565
REMARK  239  A    between atoms: _565  and  _566
REMARK  240  A    between atoms: _565  and  _568
REMARK  241  A    between atoms: _568  and  _569
REMARK  242  A    between atoms: _572  and  _574
REMARK  243  A    between atoms: _574  and  _575
REMARK  244  A    between atoms: _577  and  _579
REMARK  245  A    between atoms: _579  and  _580
REMARK  246  A    between atoms: _579  and  _582
REMARK  247  A    between atoms: _582  and  _583
REMARK  248  A    between atoms: _586  and  _588
REMARK  249  A    between atoms: _588  and  _589
REMARK  250  A    between atoms: _588  and  _591
REMARK  251  A    between atoms: _591  and  _592
REMARK  252  A    between atoms: _598  and  _600
REMARK  253  A    between atoms: _600  and  _601
REMARK  254  A    between atoms: _603  and  _605
REMARK  255  A    between atoms: _605  and  _606
REMARK  256  A    between atoms: _605  and  _608
REMARK  257  A    between atoms: _608  and  _609
REMARK  258  A    between atoms: _612  and  _614
REMARK  259  A    between atoms: _614  and  _615
REMARK  260  A    between atoms: _614  and  _617
REMARK  261  A    between atoms: _617  and  _618
REMARK  262  A    between atoms: _620  and  _622
REMARK  263  A    between atoms: _622  and  _623
REMARK  264  A    between atoms: _622  and  _625
REMARK  265  A    between atoms: _625  and  _626
REMARK  266  A    between atoms: _626  and  _627
REMARK  267  A    between atoms: _627  and  _628
REMARK  268  A    between atoms: _637  and  _639
REMARK  269  A    between atoms: _639  and  _640
REMARK  270  A    between atoms: _639  and  _642
REMARK  271  A    between atoms: _642  and  _643
REMARK  272  A    between atoms: _648  and  _649
REMARK  273  A    between atoms: _651  and  _653
REMARK  274  A    between atoms: _653  and  _654
REMARK  275  A    between atoms: _653  and  _656
REMARK  276  A    between atoms: _656  and  _657
REMARK  277  A    between atoms: _657  and  _658
REMARK  278  A    between atoms: _660  and  _662
REMARK  279  A    between atoms: _662  and  _663
REMARK  280  A    between atoms: _662  and  _665
REMARK  281  A    between atoms: _665  and  _666
REMARK                            x       y       z     vdW  Elec       q    Type
REMARK                         _______ _______ _______ _____ _____    ______ ____
ROOT
ATOM      1  CA  SER A   1     -18.493 -13.235   4.776  0.00  0.00    +0.163 C 
ENDROOT
BRANCH   1   2
ATOM      2  N   SER A   1     -18.284 -12.218   3.738  0.00  0.00    -0.237 NA
ATOM      3  H   SER A   1     -17.736 -12.505   2.902  0.00  0.00    +0.142 HD
ENDBRANCH   1   2
BRANCH   1   4
ATOM      4  C   SER A   1     -17.896 -12.863   6.139  0.00  0.00    +0.227 C 
ATOM      5  O   SER A   1     -18.607 -12.904   7.152  0.00  0.00    -0.287 OA
ENDBRANCH   1   4
BRANCH   1   6
ATOM      6  CB  SER A   1     -17.970 -14.585   4.299  0.00  0.00    +0.162 C 
BRANCH   6   7
ATOM      7  OG  SER A   1     -18.652 -15.002   3.126  0.00  0.00    -0.380 OA
ATOM      8  H   SER A   1     -19.619 -15.084   3.320  0.00  0.00    +0.211 HD
ENDBRANCH   6   7
ENDBRANCH   1   6
TORSDOF 4
REMARK  Name = ../refined-set-2016/4k9y/4k9y_pocket.pdb
REMARK  281 active torsions:
REMARK  status: ('A' for Active; 'I' for Inactive)
REMARK    1  A    between atoms: _1  and  _3
REMARK    2  A    between atoms: _3  and  _4
REMARK    3  A    between atoms: _3  and  _6
REMARK    4  A    between atoms: _6  and  _7
REMARK    5  A    between atoms: _7  and  _8
REMARK    6  A    between atoms: _8  and  _9
REMARK    7  A    between atoms: _18  and  _20
REMARK    8  A    between atoms: _20  and  _21
REMARK    9  A    between atoms: _20  and  _23
REMARK   10  A    between atoms: _23  and  _24
REMARK   11  A    between atoms: _27  and  _29
REMARK   12  A    between atoms: _29  and  _30
REMARK   13  A    between atoms: _32  and  _34
REMARK   14  A    between atoms: _34  and  _35
REMARK   15  A    between atoms: _34  and  _37
REMARK   16  A    between atoms: _37  and  _38
REMARK   17  A    between atoms: _38  and  _39
REMARK   18  A    between atoms: _42  and  _44
REMARK   19  A    between atoms: _44  and  _45
REMARK   20  A    between atoms: _44  and  _47
REMARK   21  A    between atoms: _47  and  _48
REMARK   22  A    between atoms: _54  and  _56
REMARK   23  A    between atoms: _56  and  _57
REMARK   24  A    between atoms: _56  and  _59
REMARK   25  A    between atoms: _62  and  _64
REMARK   26  A    between atoms: _64  and  _65
REMARK   27  A    between atoms: _64  and  _67
REMARK   28  A    between atoms: _67  and  _68
REMARK   29  A    between atoms: _73  and  _75
REMARK   30  A    between atoms: _75  and  _76
REMARK   31  A    between atoms: _75  and  _78
REMARK   32  A    between atoms: _78  and  _79
REMARK   33  A    between atoms: _79  and  _80
REMARK   34  A    between atoms: _85  and  _87
REMARK   35  A    between atoms: _87  and  _88
REMARK   36  A    between atoms: _91  and  _93
REMARK   37  A    between atoms: _93  and  _94
REMARK   38  A    between atoms: _93  and  _96
REMARK   39  A    between atoms: _99  and  _101
REMARK   40  A    between atoms: _101  and  _102
REMARK   41  A    between atoms: _105  and  _107
REMARK   42  A    between atoms: _107  and  _108
REMARK   43  A    between atoms: _107  and  _110
REMARK   44  A    between atoms: _110  and  _111
REMARK   45  A    between atoms: _114  and  _116
REMARK   46  A    between atoms: _116  and  _117
REMARK   47  A    between atoms: _116  and  _119
REMARK   48  A    between atoms: _119  and  _120
REMARK   49  A    between atoms: _120  and  _121
REMARK   50  A    between atoms: _121  and  _122
REMARK   51  A    between atoms: _122  and  _123
REMARK   52  A    between atoms: _127  and  _129
REMARK   53  A    between atoms: _129  and  _130
REMARK   54  A    between atoms: _129  and  _132
REMARK   55  A    between atoms: _132  and  _133
REMARK   56  A    between atoms: _133  and  _134
REMARK   57  A    between atoms: _134  and  _135
REMARK   58  A    between atoms: _135  and  _136
REMARK   59  A    between atoms: _140  and  _142
REMARK   60  A    between atoms: _142  and  _143
REMARK   61  A    between atoms: _142  and  _145
REMARK   62  A    between atoms: _145  and  _146
REMARK   63  A    between atoms: _152  and  _154
REMARK   64  A    between atoms: _154  and  _155
REMARK   65  A    between atoms: _154  and  _157
REMARK   66  A    between atoms: _157  and  _158
REMARK   67  A    between atoms: _161  and  _163
REMARK   68  A    between atoms: _163  and  _164
REMARK   69  A    between atoms: _163  and  _166
REMARK   70  A    between atoms: _166  and  _167
REMARK   71  A    between atoms: _167  and  _168
REMARK   72  A    between atoms: _173  and  _175
REMARK   73  A    between atoms: _175  and  _176
REMARK   74  A    between atoms: _175  and  _178
REMARK   75  A    between atoms: _178  and  _179
REMARK   76  A    between atoms: _179  and  _180
REMARK   77  A    between atoms: _183  and  _185
REMARK   78  A    between atoms: _185  and  _186
REMARK   79  A    between atoms: _189  and  _191
REMARK   80  A    between atoms: _191  and  _192
REMARK   81  A    between atoms: _191  and  _194
REMARK   82  A    between atoms: _194  and  _195
REMARK   83  A    between atoms: _198  and  _200
REMARK   84  A    between atoms: _200  and  _201
REMARK   85  A    between atoms: _200  and  _203
REMARK   86  A    between atoms: _203  and  _204
REMARK   87  A    between atoms: _207  and  _209
REMARK   88  A    between atoms: _209  and  _210
REMARK   89  A    between atoms: _209  and  _212
REMARK   90  A    between atoms: _212  and  _213
REMARK   91  A    between atoms: _213  and  _214
REMARK   92  A    between atoms: _216  and  _218
REMARK   93  A    between atoms: _218  and  _219
REMARK   94  A    between atoms: _218  and  _221
REMARK   95  A    between atoms: _221  and  _222
REMARK   96  A    between atoms: _222  and  _223
REMARK   97  A    between atoms: _223  and  _224
REMARK   98  A    between atoms: _233  and  _235
REMARK   99  A    between atoms: _235  and  _236
REMARK  100  A    between atoms: _235  and  _238
REMARK  101  A    between atoms: _238  and  _239
REMARK  102  A    between atoms: _239  and  _240
REMARK  103  A    between atoms: _245  and  _247
REMARK  104  A    between atoms: _247  and  _248
REMARK  105  A    between atoms: _247  and  _250
REMARK  106  A    between atoms: _250  and  _251
REMARK  107  A    between atoms: _257  and  _259
REMARK  108  A    between atoms: _259  and  _260
REMARK  109  A    between atoms: _259  and  _262
REMARK  110  A    between atoms: _262  and  _263
REMARK  111  A    between atoms: _266  and  _268
REMARK  112  A    between atoms: _268  and  _269
REMARK  113  A    between atoms: _268  and  _271
REMARK  114  A    between atoms: _271  and  _272
REMARK  115  A    between atoms: _277  and  _279
REMARK  116  A    between atoms: _279  and  _280
REMARK  117  A    between atoms: _279  and  _282
REMARK  118  A    between atoms: _282  and  _283
REMARK  119  A    between atoms: _286  and  _288
REMARK  120  A    between atoms: _288  and  _289
REMARK  121  A    between atoms: _288  and  _291
REMARK  122  A    between atoms: _294  and  _296
REMARK  123  A    between atoms: _296  and  _297
REMARK  124  A    between atoms: _296  and  _299
REMARK  125  A    between atoms: _299  and  _300
REMARK  126  A    between atoms: _300  and  _301
REMARK  127  A    between atoms: _301  and  _302
REMARK  128  A    between atoms: _302  and  _303
REMARK  129  A    between atoms: _307  and  _309
REMARK  130  A    between atoms: _309  and  _310
REMARK  131  A    between atoms: _309  and  _312
REMARK  132  A    between atoms: _312  and  _313
REMARK  133  A    between atoms: _316  and  _318
REMARK  134  A    between atoms: _318  and  _319
REMARK  135  A    between atoms: _318  and  _321
REMARK  136  A    between atoms: _321  and  _322
REMARK  137  A    between atoms: _325  and  _327
REMARK  138  A    between atoms: _327  and  _328
REMARK  139  A    between atoms: _327  and  _330
REMARK  140  A    between atoms: _330  and  _331
REMARK  141  A    between atoms: _334  and  _336
REMARK  142  A    between atoms: _336  and  _337
REMARK  143  A    between atoms: _336  and  _339
REMARK  144  A    between atoms: _339  and  _340
REMARK  145  A    between atoms: _340  and  _341
REMARK  146  A    between atoms: _343  and  _345
REMARK  147  A    between atoms: _345  and  _346
REMARK  148  A    between atoms: _345  and  _348
REMARK  149  A    between atoms: _348  and  _349
REMARK  150  A    between atoms: _349  and  _350
REMARK  151  A    between atoms: _353  and  _355
REMARK  152  A    between atoms: _355  and  _356
REMARK  153  A    between atoms: _355  and  _358
REMARK  154  A    between atoms: _358  and  _359
REMARK  155  A    between atoms: _362  and  _364
REMARK  156  A    between atoms: _364  and  _365
REMARK  157  A    between atoms: _364  and  _367
REMARK  158  A    between atoms: _369  and  _371
REMARK  159  A    between atoms: _371  and  _372
REMARK  160  A    between atoms: _371  and  _374
REMARK  161  A    between atoms: _374  and  _375
REMARK  162  A    between atoms: _378  and  _380
REMARK  163  A    between atoms: _380  and  _381
REMARK  164  A    between atoms: _380  and  _383
REMARK  165  A    between atoms: _383  and  _384
REMARK  166  A    between atoms: _387  and  _389
REMARK  167  A    between atoms: _389  and  _390
REMARK  168  A    between atoms: _392  and  _394
REMARK  169  A    between atoms: _394  and  _395
REMARK  170  A    between atoms: _394  and  _397
REMARK  171  A    between atoms: _397  and  _398
REMARK  172  A    between atoms: _398  and  _399
REMARK  173  A    between atoms: _402  and  _404
REMARK  174  A    between atoms: _404  and  _405
REMARK  175  A    between atoms: _408  and  _410
REMARK  176  A    between atoms: _410  and  _411
REMARK  177  A    between atoms: _410  and  _413
REMARK  178  A    between atoms: _413  and  _414
REMARK  179  A    between atoms: _417  and  _419
REMARK  180  A    between atoms: _419  and  _420
REMARK  181  A    between atoms: _419  and  _422
REMARK  182  A    between atoms: _422  and  _423
REMARK  183  A    between atoms: _428  and  _429
REMARK  184  A    between atoms: _431  and  _433
REMARK  185  A    between atoms: _433  and  _434
REMARK  186  A    between atoms: _433  and  _436
REMARK  187  A    between atoms: _436  and  _437
REMARK  188  A    between atoms: _440  and  _442
REMARK  189  A    between atoms: _442  and  _443
REMARK  190  A    between atoms: _442  and  _445
REMARK  191  A    between atoms: _445  and  _446
REMARK  192  A    between atoms: _452  and  _454
REMARK  193  A    between atoms: _454  and  _455
REMARK  194  A    between atoms: _454  and  _457
REMARK  195  A    between atoms: _460  and  _462
REMARK  196  A    between atoms: _462  and  _463
REMARK  197  A    between atoms: _462  and  _465
REMARK  198  A    between atoms: _465  and  _466
REMARK  199  A    between atoms: _471  and  _473
REMARK  200  A    between atoms: _473  and  _474
REMARK  201  A    between atoms: _473  and  _476
REMARK  202  A    between atoms: _476  and  _477
REMARK  203  A    between atoms: _477  and  _478
REMARK  204  A    between atoms: _478  and  _479
REMARK  205  A    between atoms: _488  and  _490
REMARK  206  A    between atoms: _490  and  _491
REMARK  207  A    between atoms: _490  and  _493
REMARK  208  A    between atoms: _493  and  _494
REMARK  209  A    between atoms: _497  and  _499
REMARK  210  A    between atoms: _499  and  _500
REMARK  211  A    between atoms: _499  and  _502
REMARK  212  A    between atoms: _502  and  _503
REMARK  213  A    between atoms: _506  and  _508
REMARK  214  A    between atoms: _508  and  _509
REMARK  215  A    between atoms: _508  and  _511
REMARK  216  A    between atoms: _511  and  _512
REMARK  217  A    between atoms: _517  and  _519
REMARK  218  A    between atoms: _519  and  _520
REMARK  219  A    between atoms: _519  and  _522
REMARK  220  A    between atoms: _525  and  _527
REMARK  221  A    between atoms: _527  and  _528
REMARK  222  A    between atoms: _527  and  _530
REMARK  223  A    between atoms: _530  and  _531
REMARK  224  A    between atoms: _534  and  _536
REMARK  225  A    between atoms: _536  and  _537
REMARK  226  A    between atoms: _536  and  _539
REMARK  227  A    between atoms: _542  and  _544
REMARK  228  A    between atoms: _544  and  _545
REMARK  229  A    between atoms: _544  and  _547
REMARK  230  A    between atoms: _547  and  _548
REMARK  231  A    between atoms: _550  and  _552
REMARK  232  A    between atoms: _552  and  _553
REMARK  233  A    between atoms: _552  and  _555
REMARK  234  A    between atoms: _555  and  _556
REMARK  235  A    between atoms: _556  and  _557
REMARK  236  A    between atoms: _557  and  _558
REMARK  237  A    between atoms: _558  and  _559
REMARK  238  A    between atoms: _563  and  _565
REMARK  239  A    between atoms: _565  and  _566
REMARK  240  A    between atoms: _565  and  _568
REMARK  241  A    between atoms: _568  and  _569
REMARK  242  A    between atoms: _572  and  _574
REMARK  243  A    between atoms: _574  and  _575
REMARK  244  A    between atoms: _577  and  _579
REMARK  245  A    between atoms: _579  and  _580
REMARK  246  A    between atoms: _579  and  _582
REMARK  247  A    between atoms: _582  and  _583
REMARK  248  A    between atoms: _586  and  _588
REMARK  249  A    between atoms: _588  and  _589
REMARK  250  A    between atoms: _588  and  _591
REMARK  251  A    between atoms: _591  and  _592
REMARK  252  A    between atoms: _598  and  _600
REMARK  253  A    between atoms: _600  and  _601
REMARK  254  A    between atoms: _603  and  _605
REMARK  255  A    between atoms: _605  and  _606
REMARK  256  A    between atoms: _605  and  _608
REMARK  257  A    between atoms: _608  and  _609
REMARK  258  A    between atoms: _612  and  _614
REMARK  259  A    between atoms: _614  and  _615
REMARK  260  A    between atoms: _614  and  _617
REMARK  261  A    between atoms: _617  and  _618
REMARK  262  A    between atoms: _620  and  _622
REMARK  263  A    between atoms: _622  and  _623
REMARK  264  A    between atoms: _622  and  _625
REMARK  265  A    between atoms: _625  and  _626
REMARK  266  A    between atoms: _626  and  _627
REMARK  267  A    between atoms: _627  and  _628
REMARK  268  A    between atoms: _637  and  _639
REMARK  269  A    between atoms: _639  and  _640
REMARK  270  A    between atoms: _639  and  _642
REMARK  271  A    between atoms: _642  and  _643
REMARK  272  A    between atoms: _648  and  _649
REMARK  273  A    between atoms: _651  and  _653
REMARK  274  A    between atoms: _653  and  _654
REMARK  275  A    between atoms: _653  and  _656
REMARK  276  A    between atoms: _656  and  _657
REMARK  277  A    between atoms: _657  and  _658
REMARK  278  A    between atoms: _660  and  _662
REMARK  279  A    between atoms: _662  and  _663
REMARK  280  A    between atoms: _662  and  _665
REMARK  281  A    between atoms: _665  and  _666
REMARK                            x       y       z     vdW  Elec       q    Type
REMARK                         _______ _______ _______ _____ _____    ______ ____
ROOT
ATOM      1  O   HOH     1     -18.382 -35.583  -1.298  0.00  0.00    +0.000 OA
ENDROOT
TORSDOF 0
REMARK  Name = ../refined-set-2016/4k9y/4k9y_pocket.pdb
REMARK  281 active torsions:
REMARK  status: ('A' for Active; 'I' for Inactive)
REMARK    1  A    between atoms: _1  and  _3
REMARK    2  A    between atoms: _3  and  _4
REMARK    3  A    between atoms: _3  and  _6
REMARK    4  A    between atoms: _6  and  _7
REMARK    5  A    between atoms: _7  and  _8
REMARK    6  A    between atoms: _8  and  _9
REMARK    7  A    between atoms: _18  and  _20
REMARK    8  A    between atoms: _20  and  _21
REMARK    9  A    between atoms: _20  and  _23
REMARK   10  A    between atoms: _23  and  _24
REMARK   11  A    between atoms: _27  and  _29
REMARK   12  A    between atoms: _29  and  _30
REMARK   13  A    between atoms: _32  and  _34
REMARK   14  A    between atoms: _34  and  _35
REMARK   15  A    between atoms: _34  and  _37
REMARK   16  A    between atoms: _37  and  _38
REMARK   17  A    between atoms: _38  and  _39
REMARK   18  A    between atoms: _42  and  _44
REMARK   19  A    between atoms: _44  and  _45
REMARK   20  A    between atoms: _44  and  _47
REMARK   21  A    between atoms: _47  and  _48
REMARK   22  A    between atoms: _54  and  _56
REMARK   23  A    between atoms: _56  and  _57
REMARK   24  A    between atoms: _56  and  _59
REMARK   25  A    between atoms: _62  and  _64
REMARK   26  A    between atoms: _64  and  _65
REMARK   27  A    between atoms: _64  and  _67
REMARK   28  A    between atoms: _67  and  _68
REMARK   29  A    between atoms: _73  and  _75
REMARK   30  A    between atoms: _75  and  _76
REMARK   31  A    between atoms: _75  and  _78
REMARK   32  A    between atoms: _78  and  _79
REMARK   33  A    between atoms: _79  and  _80
REMARK   34  A    between atoms: _85  and  _87
REMARK   35  A    between atoms: _87  and  _88
REMARK   36  A    between atoms: _91  and  _93
REMARK   37  A    between atoms: _93  and  _94
REMARK   38  A    between atoms: _93  and  _96
REMARK   39  A    between atoms: _99  and  _101
REMARK   40  A    between atoms: _101  and  _102
REMARK   41  A    between atoms: _105  and  _107
REMARK   42  A    between atoms: _107  and  _108
REMARK   43  A    between atoms: _107  and  _110
REMARK   44  A    between atoms: _110  and  _111
REMARK   45  A    between atoms: _114  and  _116
REMARK   46  A    between atoms: _116  and  _117
REMARK   47  A    between atoms: _116  and  _119
REMARK   48  A    between atoms: _119  and  _120
REMARK   49  A    between atoms: _120  and  _121
REMARK   50  A    between atoms: _121  and  _122
REMARK   51  A    between atoms: _122  and  _123
REMARK   52  A    between atoms: _127  and  _129
REMARK   53  A    between atoms: _129  and  _130
REMARK   54  A    between atoms: _129  and  _132
REMARK   55  A    between atoms: _132  and  _133
REMARK   56  A    between atoms: _133  and  _134
REMARK   57  A    between atoms: _134  and  _135
REMARK   58  A    between atoms: _135  and  _136
REMARK   59  A    between atoms: _140  and  _142
REMARK   60  A    between atoms: _142  and  _143
REMARK   61  A    between atoms: _142  and  _145
REMARK   62  A    between atoms: _145  and  _146
REMARK   63  A    between atoms: _152  and  _154
REMARK   64  A    between atoms: _154  and  _155
REMARK   65  A    between atoms: _154  and  _157
REMARK   66  A    between atoms: _157  and  _158
REMARK   67  A    between atoms: _161  and  _163
REMARK   68  A    between atoms: _163  and  _164
REMARK   69  A    between atoms: _163  and  _166
REMARK   70  A    between atoms: _166  and  _167
REMARK   71  A    between atoms: _167  and  _168
REMARK   72  A    between atoms: _173  and  _175
REMARK   73  A    between atoms: _175  and  _176
REMARK   74  A    between atoms: _175  and  _178
REMARK   75  A    between atoms: _178  and  _179
REMARK   76  A    between atoms: _179  and  _180
REMARK   77  A    between atoms: _183  and  _185
REMARK   78  A    between atoms: _185  and  _186
REMARK   79  A    between atoms: _189  and  _191
REMARK   80  A    between atoms: _191  and  _192
REMARK   81  A    between atoms: _191  and  _194
REMARK   82  A    between atoms: _194  and  _195
REMARK   83  A    between atoms: _198  and  _200
REMARK   84  A    between atoms: _200  and  _201
REMARK   85  A    between atoms: _200  and  _203
REMARK   86  A    between atoms: _203  and  _204
REMARK   87  A    between atoms: _207  and  _209
REMARK   88  A    between atoms: _209  and  _210
REMARK   89  A    between atoms: _209  and  _212
REMARK   90  A    between atoms: _212  and  _213
REMARK   91  A    between atoms: _213  and  _214
REMARK   92  A    between atoms: _216  and  _218
REMARK   93  A    between atoms: _218  and  _219
REMARK   94  A    between atoms: _218  and  _221
REMARK   95  A    between atoms: _221  and  _222
REMARK   96  A    between atoms: _222  and  _223
REMARK   97  A    between atoms: _223  and  _224
REMARK   98  A    between atoms: _233  and  _235
REMARK   99  A    between atoms: _235  and  _236
REMARK  100  A    between atoms: _235  and  _238
REMARK  101  A    between atoms: _238  and  _239
REMARK  102  A    between atoms: _239  and  _240
REMARK  103  A    between atoms: _245  and  _247
REMARK  104  A    between atoms: _247  and  _248
REMARK  105  A    between atoms: _247  and  _250
REMARK  106  A    between atoms: _250  and  _251
REMARK  107  A    between atoms: _257  and  _259
REMARK  108  A    between atoms: _259  and  _260
REMARK  109  A    between atoms: _259  and  _262
REMARK  110  A    between atoms: _262  and  _263
REMARK  111  A    between atoms: _266  and  _268
REMARK  112  A    between atoms: _268  and  _269
REMARK  113  A    between atoms: _268  and  _271
REMARK  114  A    between atoms: _271  and  _272
REMARK  115  A    between atoms: _277  and  _279
REMARK  116  A    between atoms: _279  and  _280
REMARK  117  A    between atoms: _279  and  _282
REMARK  118  A    between atoms: _282  and  _283
REMARK  119  A    between atoms: _286  and  _288
REMARK  120  A    between atoms: _288  and  _289
REMARK  121  A    between atoms: _288  and  _291
REMARK  122  A    between atoms: _294  and  _296
REMARK  123  A    between atoms: _296  and  _297
REMARK  124  A    between atoms: _296  and  _299
REMARK  125  A    between atoms: _299  and  _300
REMARK  126  A    between atoms: _300  and  _301
REMARK  127  A    between atoms: _301  and  _302
REMARK  128  A    between atoms: _302  and  _303
REMARK  129  A    between atoms: _307  and  _309
REMARK  130  A    between atoms: _309  and  _310
REMARK  131  A    between atoms: _309  and  _312
REMARK  132  A    between atoms: _312  and  _313
REMARK  133  A    between atoms: _316  and  _318
REMARK  134  A    between atoms: _318  and  _319
REMARK  135  A    between atoms: _318  and  _321
REMARK  136  A    between atoms: _321  and  _322
REMARK  137  A    between atoms: _325  and  _327
REMARK  138  A    between atoms: _327  and  _328
REMARK  139  A    between atoms: _327  and  _330
REMARK  140  A    between atoms: _330  and  _331
REMARK  141  A    between atoms: _334  and  _336
REMARK  142  A    between atoms: _336  and  _337
REMARK  143  A    between atoms: _336  and  _339
REMARK  144  A    between atoms: _339  and  _340
REMARK  145  A    between atoms: _340  and  _341
REMARK  146  A    between atoms: _343  and  _345
REMARK  147  A    between atoms: _345  and  _346
REMARK  148  A    between atoms: _345  and  _348
REMARK  149  A    between atoms: _348  and  _349
REMARK  150  A    between atoms: _349  and  _350
REMARK  151  A    between atoms: _353  and  _355
REMARK  152  A    between atoms: _355  and  _356
REMARK  153  A    between atoms: _355  and  _358
REMARK  154  A    between atoms: _358  and  _359
REMARK  155  A    between atoms: _362  and  _364
REMARK  156  A    between atoms: _364  and  _365
REMARK  157  A    between atoms: _364  and  _367
REMARK  158  A    between atoms: _369  and  _371
REMARK  159  A    between atoms: _371  and  _372
REMARK  160  A    between atoms: _371  and  _374
REMARK  161  A    between atoms: _374  and  _375
REMARK  162  A    between atoms: _378  and  _380
REMARK  163  A    between atoms: _380  and  _381
REMARK  164  A    between atoms: _380  and  _383
REMARK  165  A    between atoms: _383  and  _384
REMARK  166  A    between atoms: _387  and  _389
REMARK  167  A    between atoms: _389  and  _390
REMARK  168  A    between atoms: _392  and  _394
REMARK  169  A    between atoms: _394  and  _395
REMARK  170  A    between atoms: _394  and  _397
REMARK  171  A    between atoms: _397  and  _398
REMARK  172  A    between atoms: _398  and  _399
REMARK  173  A    between atoms: _402  and  _404
REMARK  174  A    between atoms: _404  and  _405
REMARK  175  A    between atoms: _408  and  _410
REMARK  176  A    between atoms: _410  and  _411
REMARK  177  A    between atoms: _410  and  _413
REMARK  178  A    between atoms: _413  and  _414
REMARK  179  A    between atoms: _417  and  _419
REMARK  180  A    between atoms: _419  and  _420
REMARK  181  A    between atoms: _419  and  _422
REMARK  182  A    between atoms: _422  and  _423
REMARK  183  A    between atoms: _428  and  _429
REMARK  184  A    between atoms: _431  and  _433
REMARK  185  A    between atoms: _433  and  _434
REMARK  186  A    between atoms: _433  and  _436
REMARK  187  A    between atoms: _436  and  _437
REMARK  188  A    between atoms: _440  and  _442
REMARK  189  A    between atoms: _442  and  _443
REMARK  190  A    between atoms: _442  and  _445
REMARK  191  A    between atoms: _445  and  _446
REMARK  192  A    between atoms: _452  and  _454
REMARK  193  A    between atoms: _454  and  _455
REMARK  194  A    between atoms: _454  and  _457
REMARK  195  A    between atoms: _460  and  _462
REMARK  196  A    between atoms: _462  and  _463
REMARK  197  A    between atoms: _462  and  _465
REMARK  198  A    between atoms: _465  and  _466
REMARK  199  A    between atoms: _471  and  _473
REMARK  200  A    between atoms: _473  and  _474
REMARK  201  A    between atoms: _473  and  _476
REMARK  202  A    between atoms: _476  and  _477
REMARK  203  A    between atoms: _477  and  _478
REMARK  204  A    between atoms: _478  and  _479
REMARK  205  A    between atoms: _488  and  _490
REMARK  206  A    between atoms: _490  and  _491
REMARK  207  A    between atoms: _490  and  _493
REMARK  208  A    between atoms: _493  and  _494
REMARK  209  A    between atoms: _497  and  _499
REMARK  210  A    between atoms: _499  and  _500
REMARK  211  A    between atoms: _499  and  _502
REMARK  212  A    between atoms: _502  and  _503
REMARK  213  A    between atoms: _506  and  _508
REMARK  214  A    between atoms: _508  and  _509
REMARK  215  A    between atoms: _508  and  _511
REMARK  216  A    between atoms: _511  and  _512
REMARK  217  A    between atoms: _517  and  _519
REMARK  218  A    between atoms: _519  and  _520
REMARK  219  A    between atoms: _519  and  _522
REMARK  220  A    between atoms: _525  and  _527
REMARK  221  A    between atoms: _527  and  _528
REMARK  222  A    between atoms: _527  and  _530
REMARK  223  A    between atoms: _530  and  _531
REMARK  224  A    between atoms: _534  and  _536
REMARK  225  A    between atoms: _536  and  _537
REMARK  226  A    between atoms: _536  and  _539
REMARK  227  A    between atoms: _542  and  _544
REMARK  228  A    between atoms: _544  and  _545
REMARK  229  A    between atoms: _544  and  _547
REMARK  230  A    between atoms: _547  and  _548
REMARK  231  A    between atoms: _550  and  _552
REMARK  232  A    between atoms: _552  and  _553
REMARK  233  A    between atoms: _552  and  _555
REMARK  234  A    between atoms: _555  and  _556
REMARK  235  A    between atoms: _556  and  _557
REMARK  236  A    between atoms: _557  and  _558
REMARK  237  A    between atoms: _558  and  _559
REMARK  238  A    between atoms: _563  and  _565
REMARK  239  A    between atoms: _565  and  _566
REMARK  240  A    between atoms: _565  and  _568
REMARK  241  A    between atoms: _568  and  _569
REMARK  242  A    between atoms: _572  and  _574
REMARK  243  A    between atoms: _574  and  _575
REMARK  244  A    between atoms: _577  and  _579
REMARK  245  A    between atoms: _579  and  _580
REMARK  246  A    between atoms: _579  and  _582
REMARK  247  A    between atoms: _582  and  _583
REMARK  248  A    between atoms: _586  and  _588
REMARK  249  A    between atoms: _588  and  _589
REMARK  250  A    between atoms: _588  and  _591
REMARK  251  A    between atoms: _591  and  _592
REMARK  252  A    between atoms: _598  and  _600
REMARK  253  A    between atoms: _600  and  _601
REMARK  254  A    between atoms: _603  and  _605
REMARK  255  A    between atoms: _605  and  _606
REMARK  256  A    between atoms: _605  and  _608
REMARK  257  A    between atoms: _608  and  _609
REMARK  258  A    between atoms: _612  and  _614
REMARK  259  A    between atoms: _614  and  _615
REMARK  260  A    between atoms: _614  and  _617
REMARK  261  A    between atoms: _617  and  _618
REMARK  262  A    between atoms: _620  and  _622
REMARK  263  A    between atoms: _622  and  _623
REMARK  264  A    between atoms: _622  and  _625
REMARK  265  A    between atoms: _625  and  _626
REMARK  266  A    between atoms: _626  and  _627
REMARK  267  A    between atoms: _627  and  _628
REMARK  268  A    between atoms: _637  and  _639
REMARK  269  A    between atoms: _639  and  _640
REMARK  270  A    between atoms: _639  and  _642
REMARK  271  A    between atoms: _642  and  _643
REMARK  272  A    between atoms: _648  and  _649
REMARK  273  A    between atoms: _651  and  _653
REMARK  274  A    between atoms: _653  and  _654
REMARK  275  A    between atoms: _653  and  _656
REMARK  276  A    between atoms: _656  and  _657
REMARK  277  A    between atoms: _657  and  _658
REMARK  278  A    between atoms: _660  and  _662
REMARK  279  A    between atoms: _662  and  _663
REMARK  280  A    between atoms: _662  and  _665
REMARK  281  A    between atoms: _665  and  _666
REMARK                            x       y       z     vdW  Elec       q    Type
REMARK                         _______ _______ _______ _____ _____    ______ ____
ROOT
ATOM      1  O   HOH     1     -28.316 -23.036  -0.182  0.00  0.00    +0.000 OA
ENDROOT
TORSDOF 0
REMARK  Name = ../refined-set-2016/4k9y/4k9y_pocket.pdb
REMARK  281 active torsions:
REMARK  status: ('A' for Active; 'I' for Inactive)
REMARK    1  A    between atoms: _1  and  _3
REMARK    2  A    between atoms: _3  and  _4
REMARK    3  A    between atoms: _3  and  _6
REMARK    4  A    between atoms: _6  and  _7
REMARK    5  A    between atoms: _7  and  _8
REMARK    6  A    between atoms: _8  and  _9
REMARK    7  A    between atoms: _18  and  _20
REMARK    8  A    between atoms: _20  and  _21
REMARK    9  A    between atoms: _20  and  _23
REMARK   10  A    between atoms: _23  and  _24
REMARK   11  A    between atoms: _27  and  _29
REMARK   12  A    between atoms: _29  and  _30
REMARK   13  A    between atoms: _32  and  _34
REMARK   14  A    between atoms: _34  and  _35
REMARK   15  A    between atoms: _34  and  _37
REMARK   16  A    between atoms: _37  and  _38
REMARK   17  A    between atoms: _38  and  _39
REMARK   18  A    between atoms: _42  and  _44
REMARK   19  A    between atoms: _44  and  _45
REMARK   20  A    between atoms: _44  and  _47
REMARK   21  A    between atoms: _47  and  _48
REMARK   22  A    between atoms: _54  and  _56
REMARK   23  A    between atoms: _56  and  _57
REMARK   24  A    between atoms: _56  and  _59
REMARK   25  A    between atoms: _62  and  _64
REMARK   26  A    between atoms: _64  and  _65
REMARK   27  A    between atoms: _64  and  _67
REMARK   28  A    between atoms: _67  and  _68
REMARK   29  A    between atoms: _73  and  _75
REMARK   30  A    between atoms: _75  and  _76
REMARK   31  A    between atoms: _75  and  _78
REMARK   32  A    between atoms: _78  and  _79
REMARK   33  A    between atoms: _79  and  _80
REMARK   34  A    between atoms: _85  and  _87
REMARK   35  A    between atoms: _87  and  _88
REMARK   36  A    between atoms: _91  and  _93
REMARK   37  A    between atoms: _93  and  _94
REMARK   38  A    between atoms: _93  and  _96
REMARK   39  A    between atoms: _99  and  _101
REMARK   40  A    between atoms: _101  and  _102
REMARK   41  A    between atoms: _105  and  _107
REMARK   42  A    between atoms: _107  and  _108
REMARK   43  A    between atoms: _107  and  _110
REMARK   44  A    between atoms: _110  and  _111
REMARK   45  A    between atoms: _114  and  _116
REMARK   46  A    between atoms: _116  and  _117
REMARK   47  A    between atoms: _116  and  _119
REMARK   48  A    between atoms: _119  and  _120
REMARK   49  A    between atoms: _120  and  _121
REMARK   50  A    between atoms: _121  and  _122
REMARK   51  A    between atoms: _122  and  _123
REMARK   52  A    between atoms: _127  and  _129
REMARK   53  A    between atoms: _129  and  _130
REMARK   54  A    between atoms: _129  and  _132
REMARK   55  A    between atoms: _132  and  _133
REMARK   56  A    between atoms: _133  and  _134
REMARK   57  A    between atoms: _134  and  _135
REMARK   58  A    between atoms: _135  and  _136
REMARK   59  A    between atoms: _140  and  _142
REMARK   60  A    between atoms: _142  and  _143
REMARK   61  A    between atoms: _142  and  _145
REMARK   62  A    between atoms: _145  and  _146
REMARK   63  A    between atoms: _152  and  _154
REMARK   64  A    between atoms: _154  and  _155
REMARK   65  A    between atoms: _154  and  _157
REMARK   66  A    between atoms: _157  and  _158
REMARK   67  A    between atoms: _161  and  _163
REMARK   68  A    between atoms: _163  and  _164
REMARK   69  A    between atoms: _163  and  _166
REMARK   70  A    between atoms: _166  and  _167
REMARK   71  A    between atoms: _167  and  _168
REMARK   72  A    between atoms: _173  and  _175
REMARK   73  A    between atoms: _175  and  _176
REMARK   74  A    between atoms: _175  and  _178
REMARK   75  A    between atoms: _178  and  _179
REMARK   76  A    between atoms: _179  and  _180
REMARK   77  A    between atoms: _183  and  _185
REMARK   78  A    between atoms: _185  and  _186
REMARK   79  A    between atoms: _189  and  _191
REMARK   80  A    between atoms: _191  and  _192
REMARK   81  A    between atoms: _191  and  _194
REMARK   82  A    between atoms: _194  and  _195
REMARK   83  A    between atoms: _198  and  _200
REMARK   84  A    between atoms: _200  and  _201
REMARK   85  A    between atoms: _200  and  _203
REMARK   86  A    between atoms: _203  and  _204
REMARK   87  A    between atoms: _207  and  _209
REMARK   88  A    between atoms: _209  and  _210
REMARK   89  A    between atoms: _209  and  _212
REMARK   90  A    between atoms: _212  and  _213
REMARK   91  A    between atoms: _213  and  _214
REMARK   92  A    between atoms: _216  and  _218
REMARK   93  A    between atoms: _218  and  _219
REMARK   94  A    between atoms: _218  and  _221
REMARK   95  A    between atoms: _221  and  _222
REMARK   96  A    between atoms: _222  and  _223
REMARK   97  A    between atoms: _223  and  _224
REMARK   98  A    between atoms: _233  and  _235
REMARK   99  A    between atoms: _235  and  _236
REMARK  100  A    between atoms: _235  and  _238
REMARK  101  A    between atoms: _238  and  _239
REMARK  102  A    between atoms: _239  and  _240
REMARK  103  A    between atoms: _245  and  _247
REMARK  104  A    between atoms: _247  and  _248
REMARK  105  A    between atoms: _247  and  _250
REMARK  106  A    between atoms: _250  and  _251
REMARK  107  A    between atoms: _257  and  _259
REMARK  108  A    between atoms: _259  and  _260
REMARK  109  A    between atoms: _259  and  _262
REMARK  110  A    between atoms: _262  and  _263
REMARK  111  A    between atoms: _266  and  _268
REMARK  112  A    between atoms: _268  and  _269
REMARK  113  A    between atoms: _268  and  _271
REMARK  114  A    between atoms: _271  and  _272
REMARK  115  A    between atoms: _277  and  _279
REMARK  116  A    between atoms: _279  and  _280
REMARK  117  A    between atoms: _279  and  _282
REMARK  118  A    between atoms: _282  and  _283
REMARK  119  A    between atoms: _286  and  _288
REMARK  120  A    between atoms: _288  and  _289
REMARK  121  A    between atoms: _288  and  _291
REMARK  122  A    between atoms: _294  and  _296
REMARK  123  A    between atoms: _296  and  _297
REMARK  124  A    between atoms: _296  and  _299
REMARK  125  A    between atoms: _299  and  _300
REMARK  126  A    between atoms: _300  and  _301
REMARK  127  A    between atoms: _301  and  _302
REMARK  128  A    between atoms: _302  and  _303
REMARK  129  A    between atoms: _307  and  _309
REMARK  130  A    between atoms: _309  and  _310
REMARK  131  A    between atoms: _309  and  _312
REMARK  132  A    between atoms: _312  and  _313
REMARK  133  A    between atoms: _316  and  _318
REMARK  134  A    between atoms: _318  and  _319
REMARK  135  A    between atoms: _318  and  _321
REMARK  136  A    between atoms: _321  and  _322
REMARK  137  A    between atoms: _325  and  _327
REMARK  138  A    between atoms: _327  and  _328
REMARK  139  A    between atoms: _327  and  _330
REMARK  140  A    between atoms: _330  and  _331
REMARK  141  A    between atoms: _334  and  _336
REMARK  142  A    between atoms: _336  and  _337
REMARK  143  A    between atoms: _336  and  _339
REMARK  144  A    between atoms: _339  and  _340
REMARK  145  A    between atoms: _340  and  _341
REMARK  146  A    between atoms: _343  and  _345
REMARK  147  A    between atoms: _345  and  _346
REMARK  148  A    between atoms: _345  and  _348
REMARK  149  A    between atoms: _348  and  _349
REMARK  150  A    between atoms: _349  and  _350
REMARK  151  A    between atoms: _353  and  _355
REMARK  152  A    between atoms: _355  and  _356
REMARK  153  A    between atoms: _355  and  _358
REMARK  154  A    between atoms: _358  and  _359
REMARK  155  A    between atoms: _362  and  _364
REMARK  156  A    between atoms: _364  and  _365
REMARK  157  A    between atoms: _364  and  _367
REMARK  158  A    between atoms: _369  and  _371
REMARK  159  A    between atoms: _371  and  _372
REMARK  160  A    between atoms: _371  and  _374
REMARK  161  A    between atoms: _374  and  _375
REMARK  162  A    between atoms: _378  and  _380
REMARK  163  A    between atoms: _380  and  _381
REMARK  164  A    between atoms: _380  and  _383
REMARK  165  A    between atoms: _383  and  _384
REMARK  166  A    between atoms: _387  and  _389
REMARK  167  A    between atoms: _389  and  _390
REMARK  168  A    between atoms: _392  and  _394
REMARK  169  A    between atoms: _394  and  _395
REMARK  170  A    between atoms: _394  and  _397
REMARK  171  A    between atoms: _397  and  _398
REMARK  172  A    between atoms: _398  and  _399
REMARK  173  A    between atoms: _402  and  _404
REMARK  174  A    between atoms: _404  and  _405
REMARK  175  A    between atoms: _408  and  _410
REMARK  176  A    between atoms: _410  and  _411
REMARK  177  A    between atoms: _410  and  _413
REMARK  178  A    between atoms: _413  and  _414
REMARK  179  A    between atoms: _417  and  _419
REMARK  180  A    between atoms: _419  and  _420
REMARK  181  A    between atoms: _419  and  _422
REMARK  182  A    between atoms: _422  and  _423
REMARK  183  A    between atoms: _428  and  _429
REMARK  184  A    between atoms: _431  and  _433
REMARK  185  A    between atoms: _433  and  _434
REMARK  186  A    between atoms: _433  and  _436
REMARK  187  A    between atoms: _436  and  _437
REMARK  188  A    between atoms: _440  and  _442
REMARK  189  A    between atoms: _442  and  _443
REMARK  190  A    between atoms: _442  and  _445
REMARK  191  A    between atoms: _445  and  _446
REMARK  192  A    between atoms: _452  and  _454
REMARK  193  A    between atoms: _454  and  _455
REMARK  194  A    between atoms: _454  and  _457
REMARK  195  A    between atoms: _460  and  _462
REMARK  196  A    between atoms: _462  and  _463
REMARK  197  A    between atoms: _462  and  _465
REMARK  198  A    between atoms: _465  and  _466
REMARK  199  A    between atoms: _471  and  _473
REMARK  200  A    between atoms: _473  and  _474
REMARK  201  A    between atoms: _473  and  _476
REMARK  202  A    between atoms: _476  and  _477
REMARK  203  A    between atoms: _477  and  _478
REMARK  204  A    between atoms: _478  and  _479
REMARK  205  A    between atoms: _488  and  _490
REMARK  206  A    between atoms: _490  and  _491
REMARK  207  A    between atoms: _490  and  _493
REMARK  208  A    between atoms: _493  and  _494
REMARK  209  A    between atoms: _497  and  _499
REMARK  210  A    between atoms: _499  and  _500
REMARK  211  A    between atoms: _499  and  _502
REMARK  212  A    between atoms: _502  and  _503
REMARK  213  A    between atoms: _506  and  _508
REMARK  214  A    between atoms: _508  and  _509
REMARK  215  A    between atoms: _508  and  _511
REMARK  216  A    between atoms: _511  and  _512
REMARK  217  A    between atoms: _517  and  _519
REMARK  218  A    between atoms: _519  and  _520
REMARK  219  A    between atoms: _519  and  _522
REMARK  220  A    between atoms: _525  and  _527
REMARK  221  A    between atoms: _527  and  _528
REMARK  222  A    between atoms: _527  and  _530
REMARK  223  A    between atoms: _530  and  _531
REMARK  224  A    between atoms: _534  and  _536
REMARK  225  A    between atoms: _536  and  _537
REMARK  226  A    between atoms: _536  and  _539
REMARK  227  A    between atoms: _542  and  _544
REMARK  228  A    between atoms: _544  and  _545
REMARK  229  A    between atoms: _544  and  _547
REMARK  230  A    between atoms: _547  and  _548
REMARK  231  A    between atoms: _550  and  _552
REMARK  232  A    between atoms: _552  and  _553
REMARK  233  A    between atoms: _552  and  _555
REMARK  234  A    between atoms: _555  and  _556
REMARK  235  A    between atoms: _556  and  _557
REMARK  236  A    between atoms: _557  and  _558
REMARK  237  A    between atoms: _558  and  _559
REMARK  238  A    between atoms: _563  and  _565
REMARK  239  A    between atoms: _565  and  _566
REMARK  240  A    between atoms: _565  and  _568
REMARK  241  A    between atoms: _568  and  _569
REMARK  242  A    between atoms: _572  and  _574
REMARK  243  A    between atoms: _574  and  _575
REMARK  244  A    between atoms: _577  and  _579
REMARK  245  A    between atoms: _579  and  _580
REMARK  246  A    between atoms: _579  and  _582
REMARK  247  A    between atoms: _582  and  _583
REMARK  248  A    between atoms: _586  and  _588
REMARK  249  A    between atoms: _588  and  _589
REMARK  250  A    between atoms: _588  and  _591
REMARK  251  A    between atoms: _591  and  _592
REMARK  252  A    between atoms: _598  and  _600
REMARK  253  A    between atoms: _600  and  _601
REMARK  254  A    between atoms: _603  and  _605
REMARK  255  A    between atoms: _605  and  _606
REMARK  256  A    between atoms: _605  and  _608
REMARK  257  A    between atoms: _608  and  _609
REMARK  258  A    between atoms: _612  and  _614
REMARK  259  A    between atoms: _614  and  _615
REMARK  260  A    between atoms: _614  and  _617
REMARK  261  A    between atoms: _617  and  _618
REMARK  262  A    between atoms: _620  and  _622
REMARK  263  A    between atoms: _622  and  _623
REMARK  264  A    between atoms: _622  and  _625
REMARK  265  A    between atoms: _625  and  _626
REMARK  266  A    between atoms: _626  and  _627
REMARK  267  A    between atoms: _627  and  _628
REMARK  268  A    between atoms: _637  and  _639
REMARK  269  A    between atoms: _639  and  _640
REMARK  270  A    between atoms: _639  and  _642
REMARK  271  A    between atoms: _642  and  _643
REMARK  272  A    between atoms: _648  and  _649
REMARK  273  A    between atoms: _651  and  _653
REMARK  274  A    between atoms: _653  and  _654
REMARK  275  A    between atoms: _653  and  _656
REMARK  276  A    between atoms: _656  and  _657
REMARK  277  A    between atoms: _657  and  _658
REMARK  278  A    between atoms: _660  and  _662
REMARK  279  A    between atoms: _662  and  _663
REMARK  280  A    between atoms: _662  and  _665
REMARK  281  A    between atoms: _665  and  _666
REMARK                            x       y       z     vdW  Elec       q    Type
REMARK                         _______ _______ _______ _____ _____    ______ ____
ROOT
ATOM      1  O   HOH     1     -25.210 -25.254   4.830  0.00  0.00    +0.000 OA
ENDROOT
TORSDOF 0
REMARK  Name = ../refined-set-2016/4k9y/4k9y_pocket.pdb
REMARK  281 active torsions:
REMARK  status: ('A' for Active; 'I' for Inactive)
REMARK    1  A    between atoms: _1  and  _3
REMARK    2  A    between atoms: _3  and  _4
REMARK    3  A    between atoms: _3  and  _6
REMARK    4  A    between atoms: _6  and  _7
REMARK    5  A    between atoms: _7  and  _8
REMARK    6  A    between atoms: _8  and  _9
REMARK    7  A    between atoms: _18  and  _20
REMARK    8  A    between atoms: _20  and  _21
REMARK    9  A    between atoms: _20  and  _23
REMARK   10  A    between atoms: _23  and  _24
REMARK   11  A    between atoms: _27  and  _29
REMARK   12  A    between atoms: _29  and  _30
REMARK   13  A    between atoms: _32  and  _34
REMARK   14  A    between atoms: _34  and  _35
REMARK   15  A    between atoms: _34  and  _37
REMARK   16  A    between atoms: _37  and  _38
REMARK   17  A    between atoms: _38  and  _39
REMARK   18  A    between atoms: _42  and  _44
REMARK   19  A    between atoms: _44  and  _45
REMARK   20  A    between atoms: _44  and  _47
REMARK   21  A    between atoms: _47  and  _48
REMARK   22  A    between atoms: _54  and  _56
REMARK   23  A    between atoms: _56  and  _57
REMARK   24  A    between atoms: _56  and  _59
REMARK   25  A    between atoms: _62  and  _64
REMARK   26  A    between atoms: _64  and  _65
REMARK   27  A    between atoms: _64  and  _67
REMARK   28  A    between atoms: _67  and  _68
REMARK   29  A    between atoms: _73  and  _75
REMARK   30  A    between atoms: _75  and  _76
REMARK   31  A    between atoms: _75  and  _78
REMARK   32  A    between atoms: _78  and  _79
REMARK   33  A    between atoms: _79  and  _80
REMARK   34  A    between atoms: _85  and  _87
REMARK   35  A    between atoms: _87  and  _88
REMARK   36  A    between atoms: _91  and  _93
REMARK   37  A    between atoms: _93  and  _94
REMARK   38  A    between atoms: _93  and  _96
REMARK   39  A    between atoms: _99  and  _101
REMARK   40  A    between atoms: _101  and  _102
REMARK   41  A    between atoms: _105  and  _107
REMARK   42  A    between atoms: _107  and  _108
REMARK   43  A    between atoms: _107  and  _110
REMARK   44  A    between atoms: _110  and  _111
REMARK   45  A    between atoms: _114  and  _116
REMARK   46  A    between atoms: _116  and  _117
REMARK   47  A    between atoms: _116  and  _119
REMARK   48  A    between atoms: _119  and  _120
REMARK   49  A    between atoms: _120  and  _121
REMARK   50  A    between atoms: _121  and  _122
REMARK   51  A    between atoms: _122  and  _123
REMARK   52  A    between atoms: _127  and  _129
REMARK   53  A    between atoms: _129  and  _130
REMARK   54  A    between atoms: _129  and  _132
REMARK   55  A    between atoms: _132  and  _133
REMARK   56  A    between atoms: _133  and  _134
REMARK   57  A    between atoms: _134  and  _135
REMARK   58  A    between atoms: _135  and  _136
REMARK   59  A    between atoms: _140  and  _142
REMARK   60  A    between atoms: _142  and  _143
REMARK   61  A    between atoms: _142  and  _145
REMARK   62  A    between atoms: _145  and  _146
REMARK   63  A    between atoms: _152  and  _154
REMARK   64  A    between atoms: _154  and  _155
REMARK   65  A    between atoms: _154  and  _157
REMARK   66  A    between atoms: _157  and  _158
REMARK   67  A    between atoms: _161  and  _163
REMARK   68  A    between atoms: _163  and  _164
REMARK   69  A    between atoms: _163  and  _166
REMARK   70  A    between atoms: _166  and  _167
REMARK   71  A    between atoms: _167  and  _168
REMARK   72  A    between atoms: _173  and  _175
REMARK   73  A    between atoms: _175  and  _176
REMARK   74  A    between atoms: _175  and  _178
REMARK   75  A    between atoms: _178  and  _179
REMARK   76  A    between atoms: _179  and  _180
REMARK   77  A    between atoms: _183  and  _185
REMARK   78  A    between atoms: _185  and  _186
REMARK   79  A    between atoms: _189  and  _191
REMARK   80  A    between atoms: _191  and  _192
REMARK   81  A    between atoms: _191  and  _194
REMARK   82  A    between atoms: _194  and  _195
REMARK   83  A    between atoms: _198  and  _200
REMARK   84  A    between atoms: _200  and  _201
REMARK   85  A    between atoms: _200  and  _203
REMARK   86  A    between atoms: _203  and  _204
REMARK   87  A    between atoms: _207  and  _209
REMARK   88  A    between atoms: _209  and  _210
REMARK   89  A    between atoms: _209  and  _212
REMARK   90  A    between atoms: _212  and  _213
REMARK   91  A    between atoms: _213  and  _214
REMARK   92  A    between atoms: _216  and  _218
REMARK   93  A    between atoms: _218  and  _219
REMARK   94  A    between atoms: _218  and  _221
REMARK   95  A    between atoms: _221  and  _222
REMARK   96  A    between atoms: _222  and  _223
REMARK   97  A    between atoms: _223  and  _224
REMARK   98  A    between atoms: _233  and  _235
REMARK   99  A    between atoms: _235  and  _236
REMARK  100  A    between atoms: _235  and  _238
REMARK  101  A    between atoms: _238  and  _239
REMARK  102  A    between atoms: _239  and  _240
REMARK  103  A    between atoms: _245  and  _247
REMARK  104  A    between atoms: _247  and  _248
REMARK  105  A    between atoms: _247  and  _250
REMARK  106  A    between atoms: _250  and  _251
REMARK  107  A    between atoms: _257  and  _259
REMARK  108  A    between atoms: _259  and  _260
REMARK  109  A    between atoms: _259  and  _262
REMARK  110  A    between atoms: _262  and  _263
REMARK  111  A    between atoms: _266  and  _268
REMARK  112  A    between atoms: _268  and  _269
REMARK  113  A    between atoms: _268  and  _271
REMARK  114  A    between atoms: _271  and  _272
REMARK  115  A    between atoms: _277  and  _279
REMARK  116  A    between atoms: _279  and  _280
REMARK  117  A    between atoms: _279  and  _282
REMARK  118  A    between atoms: _282  and  _283
REMARK  119  A    between atoms: _286  and  _288
REMARK  120  A    between atoms: _288  and  _289
REMARK  121  A    between atoms: _288  and  _291
REMARK  122  A    between atoms: _294  and  _296
REMARK  123  A    between atoms: _296  and  _297
REMARK  124  A    between atoms: _296  and  _299
REMARK  125  A    between atoms: _299  and  _300
REMARK  126  A    between atoms: _300  and  _301
REMARK  127  A    between atoms: _301  and  _302
REMARK  128  A    between atoms: _302  and  _303
REMARK  129  A    between atoms: _307  and  _309
REMARK  130  A    between atoms: _309  and  _310
REMARK  131  A    between atoms: _309  and  _312
REMARK  132  A    between atoms: _312  and  _313
REMARK  133  A    between atoms: _316  and  _318
REMARK  134  A    between atoms: _318  and  _319
REMARK  135  A    between atoms: _318  and  _321
REMARK  136  A    between atoms: _321  and  _322
REMARK  137  A    between atoms: _325  and  _327
REMARK  138  A    between atoms: _327  and  _328
REMARK  139  A    between atoms: _327  and  _330
REMARK  140  A    between atoms: _330  and  _331
REMARK  141  A    between atoms: _334  and  _336
REMARK  142  A    between atoms: _336  and  _337
REMARK  143  A    between atoms: _336  and  _339
REMARK  144  A    between atoms: _339  and  _340
REMARK  145  A    between atoms: _340  and  _341
REMARK  146  A    between atoms: _343  and  _345
REMARK  147  A    between atoms: _345  and  _346
REMARK  148  A    between atoms: _345  and  _348
REMARK  149  A    between atoms: _348  and  _349
REMARK  150  A    between atoms: _349  and  _350
REMARK  151  A    between atoms: _353  and  _355
REMARK  152  A    between atoms: _355  and  _356
REMARK  153  A    between atoms: _355  and  _358
REMARK  154  A    between atoms: _358  and  _359
REMARK  155  A    between atoms: _362  and  _364
REMARK  156  A    between atoms: _364  and  _365
REMARK  157  A    between atoms: _364  and  _367
REMARK  158  A    between atoms: _369  and  _371
REMARK  159  A    between atoms: _371  and  _372
REMARK  160  A    between atoms: _371  and  _374
REMARK  161  A    between atoms: _374  and  _375
REMARK  162  A    between atoms: _378  and  _380
REMARK  163  A    between atoms: _380  and  _381
REMARK  164  A    between atoms: _380  and  _383
REMARK  165  A    between atoms: _383  and  _384
REMARK  166  A    between atoms: _387  and  _389
REMARK  167  A    between atoms: _389  and  _390
REMARK  168  A    between atoms: _392  and  _394
REMARK  169  A    between atoms: _394  and  _395
REMARK  170  A    between atoms: _394  and  _397
REMARK  171  A    between atoms: _397  and  _398
REMARK  172  A    between atoms: _398  and  _399
REMARK  173  A    between atoms: _402  and  _404
REMARK  174  A    between atoms: _404  and  _405
REMARK  175  A    between atoms: _408  and  _410
REMARK  176  A    between atoms: _410  and  _411
REMARK  177  A    between atoms: _410  and  _413
REMARK  178  A    between atoms: _413  and  _414
REMARK  179  A    between atoms: _417  and  _419
REMARK  180  A    between atoms: _419  and  _420
REMARK  181  A    between atoms: _419  and  _422
REMARK  182  A    between atoms: _422  and  _423
REMARK  183  A    between atoms: _428  and  _429
REMARK  184  A    between atoms: _431  and  _433
REMARK  185  A    between atoms: _433  and  _434
REMARK  186  A    between atoms: _433  and  _436
REMARK  187  A    between atoms: _436  and  _437
REMARK  188  A    between atoms: _440  and  _442
REMARK  189  A    between atoms: _442  and  _443
REMARK  190  A    between atoms: _442  and  _445
REMARK  191  A    between atoms: _445  and  _446
REMARK  192  A    between atoms: _452  and  _454
REMARK  193  A    between atoms: _454  and  _455
REMARK  194  A    between atoms: _454  and  _457
REMARK  195  A    between atoms: _460  and  _462
REMARK  196  A    between atoms: _462  and  _463
REMARK  197  A    between atoms: _462  and  _465
REMARK  198  A    between atoms: _465  and  _466
REMARK  199  A    between atoms: _471  and  _473
REMARK  200  A    between atoms: _473  and  _474
REMARK  201  A    between atoms: _473  and  _476
REMARK  202  A    between atoms: _476  and  _477
REMARK  203  A    between atoms: _477  and  _478
REMARK  204  A    between atoms: _478  and  _479
REMARK  205  A    between atoms: _488  and  _490
REMARK  206  A    between atoms: _490  and  _491
REMARK  207  A    between atoms: _490  and  _493
REMARK  208  A    between atoms: _493  and  _494
REMARK  209  A    between atoms: _497  and  _499
REMARK  210  A    between atoms: _499  and  _500
REMARK  211  A    between atoms: _499  and  _502
REMARK  212  A    between atoms: _502  and  _503
REMARK  213  A    between atoms: _506  and  _508
REMARK  214  A    between atoms: _508  and  _509
REMARK  215  A    between atoms: _508  and  _511
REMARK  216  A    between atoms: _511  and  _512
REMARK  217  A    between atoms: _517  and  _519
REMARK  218  A    between atoms: _519  and  _520
REMARK  219  A    between atoms: _519  and  _522
REMARK  220  A    between atoms: _525  and  _527
REMARK  221  A    between atoms: _527  and  _528
REMARK  222  A    between atoms: _527  and  _530
REMARK  223  A    between atoms: _530  and  _531
REMARK  224  A    between atoms: _534  and  _536
REMARK  225  A    between atoms: _536  and  _537
REMARK  226  A    between atoms: _536  and  _539
REMARK  227  A    between atoms: _542  and  _544
REMARK  228  A    between atoms: _544  and  _545
REMARK  229  A    between atoms: _544  and  _547
REMARK  230  A    between atoms: _547  and  _548
REMARK  231  A    between atoms: _550  and  _552
REMARK  232  A    between atoms: _552  and  _553
REMARK  233  A    between atoms: _552  and  _555
REMARK  234  A    between atoms: _555  and  _556
REMARK  235  A    between atoms: _556  and  _557
REMARK  236  A    between atoms: _557  and  _558
REMARK  237  A    between atoms: _558  and  _559
REMARK  238  A    between atoms: _563  and  _565
REMARK  239  A    between atoms: _565  and  _566
REMARK  240  A    between atoms: _565  and  _568
REMARK  241  A    between atoms: _568  and  _569
REMARK  242  A    between atoms: _572  and  _574
REMARK  243  A    between atoms: _574  and  _575
REMARK  244  A    between atoms: _577  and  _579
REMARK  245  A    between atoms: _579  and  _580
REMARK  246  A    between atoms: _579  and  _582
REMARK  247  A    between atoms: _582  and  _583
REMARK  248  A    between atoms: _586  and  _588
REMARK  249  A    between atoms: _588  and  _589
REMARK  250  A    between atoms: _588  and  _591
REMARK  251  A    between atoms: _591  and  _592
REMARK  252  A    between atoms: _598  and  _600
REMARK  253  A    between atoms: _600  and  _601
REMARK  254  A    between atoms: _603  and  _605
REMARK  255  A    between atoms: _605  and  _606
REMARK  256  A    between atoms: _605  and  _608
REMARK  257  A    between atoms: _608  and  _609
REMARK  258  A    between atoms: _612  and  _614
REMARK  259  A    between atoms: _614  and  _615
REMARK  260  A    between atoms: _614  and  _617
REMARK  261  A    between atoms: _617  and  _618
REMARK  262  A    between atoms: _620  and  _622
REMARK  263  A    between atoms: _622  and  _623
REMARK  264  A    between atoms: _622  and  _625
REMARK  265  A    between atoms: _625  and  _626
REMARK  266  A    between atoms: _626  and  _627
REMARK  267  A    between atoms: _627  and  _628
REMARK  268  A    between atoms: _637  and  _639
REMARK  269  A    between atoms: _639  and  _640
REMARK  270  A    between atoms: _639  and  _642
REMARK  271  A    between atoms: _642  and  _643
REMARK  272  A    between atoms: _648  and  _649
REMARK  273  A    between atoms: _651  and  _653
REMARK  274  A    between atoms: _653  and  _654
REMARK  275  A    between atoms: _653  and  _656
REMARK  276  A    between atoms: _656  and  _657
REMARK  277  A    between atoms: _657  and  _658
REMARK  278  A    between atoms: _660  and  _662
REMARK  279  A    between atoms: _662  and  _663
REMARK  280  A    between atoms: _662  and  _665
REMARK  281  A    between atoms: _665  and  _666
REMARK                            x       y       z     vdW  Elec       q    Type
REMARK                         _______ _______ _______ _____ _____    ______ ____
ROOT
ATOM      1  O   HOH     1     -29.159 -22.202   5.503  0.00  0.00    +0.000 OA
ENDROOT
TORSDOF 0
REMARK  Name = ../refined-set-2016/4k9y/4k9y_pocket.pdb
REMARK  281 active torsions:
REMARK  status: ('A' for Active; 'I' for Inactive)
REMARK    1  A    between atoms: _1  and  _3
REMARK    2  A    between atoms: _3  and  _4
REMARK    3  A    between atoms: _3  and  _6
REMARK    4  A    between atoms: _6  and  _7
REMARK    5  A    between atoms: _7  and  _8
REMARK    6  A    between atoms: _8  and  _9
REMARK    7  A    between atoms: _18  and  _20
REMARK    8  A    between atoms: _20  and  _21
REMARK    9  A    between atoms: _20  and  _23
REMARK   10  A    between atoms: _23  and  _24
REMARK   11  A    between atoms: _27  and  _29
REMARK   12  A    between atoms: _29  and  _30
REMARK   13  A    between atoms: _32  and  _34
REMARK   14  A    between atoms: _34  and  _35
REMARK   15  A    between atoms: _34  and  _37
REMARK   16  A    between atoms: _37  and  _38
REMARK   17  A    between atoms: _38  and  _39
REMARK   18  A    between atoms: _42  and  _44
REMARK   19  A    between atoms: _44  and  _45
REMARK   20  A    between atoms: _44  and  _47
REMARK   21  A    between atoms: _47  and  _48
REMARK   22  A    between atoms: _54  and  _56
REMARK   23  A    between atoms: _56  and  _57
REMARK   24  A    between atoms: _56  and  _59
REMARK   25  A    between atoms: _62  and  _64
REMARK   26  A    between atoms: _64  and  _65
REMARK   27  A    between atoms: _64  and  _67
REMARK   28  A    between atoms: _67  and  _68
REMARK   29  A    between atoms: _73  and  _75
REMARK   30  A    between atoms: _75  and  _76
REMARK   31  A    between atoms: _75  and  _78
REMARK   32  A    between atoms: _78  and  _79
REMARK   33  A    between atoms: _79  and  _80
REMARK   34  A    between atoms: _85  and  _87
REMARK   35  A    between atoms: _87  and  _88
REMARK   36  A    between atoms: _91  and  _93
REMARK   37  A    between atoms: _93  and  _94
REMARK   38  A    between atoms: _93  and  _96
REMARK   39  A    between atoms: _99  and  _101
REMARK   40  A    between atoms: _101  and  _102
REMARK   41  A    between atoms: _105  and  _107
REMARK   42  A    between atoms: _107  and  _108
REMARK   43  A    between atoms: _107  and  _110
REMARK   44  A    between atoms: _110  and  _111
REMARK   45  A    between atoms: _114  and  _116
REMARK   46  A    between atoms: _116  and  _117
REMARK   47  A    between atoms: _116  and  _119
REMARK   48  A    between atoms: _119  and  _120
REMARK   49  A    between atoms: _120  and  _121
REMARK   50  A    between atoms: _121  and  _122
REMARK   51  A    between atoms: _122  and  _123
REMARK   52  A    between atoms: _127  and  _129
REMARK   53  A    between atoms: _129  and  _130
REMARK   54  A    between atoms: _129  and  _132
REMARK   55  A    between atoms: _132  and  _133
REMARK   56  A    between atoms: _133  and  _134
REMARK   57  A    between atoms: _134  and  _135
REMARK   58  A    between atoms: _135  and  _136
REMARK   59  A    between atoms: _140  and  _142
REMARK   60  A    between atoms: _142  and  _143
REMARK   61  A    between atoms: _142  and  _145
REMARK   62  A    between atoms: _145  and  _146
REMARK   63  A    between atoms: _152  and  _154
REMARK   64  A    between atoms: _154  and  _155
REMARK   65  A    between atoms: _154  and  _157
REMARK   66  A    between atoms: _157  and  _158
REMARK   67  A    between atoms: _161  and  _163
REMARK   68  A    between atoms: _163  and  _164
REMARK   69  A    between atoms: _163  and  _166
REMARK   70  A    between atoms: _166  and  _167
REMARK   71  A    between atoms: _167  and  _168
REMARK   72  A    between atoms: _173  and  _175
REMARK   73  A    between atoms: _175  and  _176
REMARK   74  A    between atoms: _175  and  _178
REMARK   75  A    between atoms: _178  and  _179
REMARK   76  A    between atoms: _179  and  _180
REMARK   77  A    between atoms: _183  and  _185
REMARK   78  A    between atoms: _185  and  _186
REMARK   79  A    between atoms: _189  and  _191
REMARK   80  A    between atoms: _191  and  _192
REMARK   81  A    between atoms: _191  and  _194
REMARK   82  A    between atoms: _194  and  _195
REMARK   83  A    between atoms: _198  and  _200
REMARK   84  A    between atoms: _200  and  _201
REMARK   85  A    between atoms: _200  and  _203
REMARK   86  A    between atoms: _203  and  _204
REMARK   87  A    between atoms: _207  and  _209
REMARK   88  A    between atoms: _209  and  _210
REMARK   89  A    between atoms: _209  and  _212
REMARK   90  A    between atoms: _212  and  _213
REMARK   91  A    between atoms: _213  and  _214
REMARK   92  A    between atoms: _216  and  _218
REMARK   93  A    between atoms: _218  and  _219
REMARK   94  A    between atoms: _218  and  _221
REMARK   95  A    between atoms: _221  and  _222
REMARK   96  A    between atoms: _222  and  _223
REMARK   97  A    between atoms: _223  and  _224
REMARK   98  A    between atoms: _233  and  _235
REMARK   99  A    between atoms: _235  and  _236
REMARK  100  A    between atoms: _235  and  _238
REMARK  101  A    between atoms: _238  and  _239
REMARK  102  A    between atoms: _239  and  _240
REMARK  103  A    between atoms: _245  and  _247
REMARK  104  A    between atoms: _247  and  _248
REMARK  105  A    between atoms: _247  and  _250
REMARK  106  A    between atoms: _250  and  _251
REMARK  107  A    between atoms: _257  and  _259
REMARK  108  A    between atoms: _259  and  _260
REMARK  109  A    between atoms: _259  and  _262
REMARK  110  A    between atoms: _262  and  _263
REMARK  111  A    between atoms: _266  and  _268
REMARK  112  A    between atoms: _268  and  _269
REMARK  113  A    between atoms: _268  and  _271
REMARK  114  A    between atoms: _271  and  _272
REMARK  115  A    between atoms: _277  and  _279
REMARK  116  A    between atoms: _279  and  _280
REMARK  117  A    between atoms: _279  and  _282
REMARK  118  A    between atoms: _282  and  _283
REMARK  119  A    between atoms: _286  and  _288
REMARK  120  A    between atoms: _288  and  _289
REMARK  121  A    between atoms: _288  and  _291
REMARK  122  A    between atoms: _294  and  _296
REMARK  123  A    between atoms: _296  and  _297
REMARK  124  A    between atoms: _296  and  _299
REMARK  125  A    between atoms: _299  and  _300
REMARK  126  A    between atoms: _300  and  _301
REMARK  127  A    between atoms: _301  and  _302
REMARK  128  A    between atoms: _302  and  _303
REMARK  129  A    between atoms: _307  and  _309
REMARK  130  A    between atoms: _309  and  _310
REMARK  131  A    between atoms: _309  and  _312
REMARK  132  A    between atoms: _312  and  _313
REMARK  133  A    between atoms: _316  and  _318
REMARK  134  A    between atoms: _318  and  _319
REMARK  135  A    between atoms: _318  and  _321
REMARK  136  A    between atoms: _321  and  _322
REMARK  137  A    between atoms: _325  and  _327
REMARK  138  A    between atoms: _327  and  _328
REMARK  139  A    between atoms: _327  and  _330
REMARK  140  A    between atoms: _330  and  _331
REMARK  141  A    between atoms: _334  and  _336
REMARK  142  A    between atoms: _336  and  _337
REMARK  143  A    between atoms: _336  and  _339
REMARK  144  A    between atoms: _339  and  _340
REMARK  145  A    between atoms: _340  and  _341
REMARK  146  A    between atoms: _343  and  _345
REMARK  147  A    between atoms: _345  and  _346
REMARK  148  A    between atoms: _345  and  _348
REMARK  149  A    between atoms: _348  and  _349
REMARK  150  A    between atoms: _349  and  _350
REMARK  151  A    between atoms: _353  and  _355
REMARK  152  A    between atoms: _355  and  _356
REMARK  153  A    between atoms: _355  and  _358
REMARK  154  A    between atoms: _358  and  _359
REMARK  155  A    between atoms: _362  and  _364
REMARK  156  A    between atoms: _364  and  _365
REMARK  157  A    between atoms: _364  and  _367
REMARK  158  A    between atoms: _369  and  _371
REMARK  159  A    between atoms: _371  and  _372
REMARK  160  A    between atoms: _371  and  _374
REMARK  161  A    between atoms: _374  and  _375
REMARK  162  A    between atoms: _378  and  _380
REMARK  163  A    between atoms: _380  and  _381
REMARK  164  A    between atoms: _380  and  _383
REMARK  165  A    between atoms: _383  and  _384
REMARK  166  A    between atoms: _387  and  _389
REMARK  167  A    between atoms: _389  and  _390
REMARK  168  A    between atoms: _392  and  _394
REMARK  169  A    between atoms: _394  and  _395
REMARK  170  A    between atoms: _394  and  _397
REMARK  171  A    between atoms: _397  and  _398
REMARK  172  A    between atoms: _398  and  _399
REMARK  173  A    between atoms: _402  and  _404
REMARK  174  A    between atoms: _404  and  _405
REMARK  175  A    between atoms: _408  and  _410
REMARK  176  A    between atoms: _410  and  _411
REMARK  177  A    between atoms: _410  and  _413
REMARK  178  A    between atoms: _413  and  _414
REMARK  179  A    between atoms: _417  and  _419
REMARK  180  A    between atoms: _419  and  _420
REMARK  181  A    between atoms: _419  and  _422
REMARK  182  A    between atoms: _422  and  _423
REMARK  183  A    between atoms: _428  and  _429
REMARK  184  A    between atoms: _431  and  _433
REMARK  185  A    between atoms: _433  and  _434
REMARK  186  A    between atoms: _433  and  _436
REMARK  187  A    between atoms: _436  and  _437
REMARK  188  A    between atoms: _440  and  _442
REMARK  189  A    between atoms: _442  and  _443
REMARK  190  A    between atoms: _442  and  _445
REMARK  191  A    between atoms: _445  and  _446
REMARK  192  A    between atoms: _452  and  _454
REMARK  193  A    between atoms: _454  and  _455
REMARK  194  A    between atoms: _454  and  _457
REMARK  195  A    between atoms: _460  and  _462
REMARK  196  A    between atoms: _462  and  _463
REMARK  197  A    between atoms: _462  and  _465
REMARK  198  A    between atoms: _465  and  _466
REMARK  199  A    between atoms: _471  and  _473
REMARK  200  A    between atoms: _473  and  _474
REMARK  201  A    between atoms: _473  and  _476
REMARK  202  A    between atoms: _476  and  _477
REMARK  203  A    between atoms: _477  and  _478
REMARK  204  A    between atoms: _478  and  _479
REMARK  205  A    between atoms: _488  and  _490
REMARK  206  A    between atoms: _490  and  _491
REMARK  207  A    between atoms: _490  and  _493
REMARK  208  A    between atoms: _493  and  _494
REMARK  209  A    between atoms: _497  and  _499
REMARK  210  A    between atoms: _499  and  _500
REMARK  211  A    between atoms: _499  and  _502
REMARK  212  A    between atoms: _502  and  _503
REMARK  213  A    between atoms: _506  and  _508
REMARK  214  A    between atoms: _508  and  _509
REMARK  215  A    between atoms: _508  and  _511
REMARK  216  A    between atoms: _511  and  _512
REMARK  217  A    between atoms: _517  and  _519
REMARK  218  A    between atoms: _519  and  _520
REMARK  219  A    between atoms: _519  and  _522
REMARK  220  A    between atoms: _525  and  _527
REMARK  221  A    between atoms: _527  and  _528
REMARK  222  A    between atoms: _527  and  _530
REMARK  223  A    between atoms: _530  and  _531
REMARK  224  A    between atoms: _534  and  _536
REMARK  225  A    between atoms: _536  and  _537
REMARK  226  A    between atoms: _536  and  _539
REMARK  227  A    between atoms: _542  and  _544
REMARK  228  A    between atoms: _544  and  _545
REMARK  229  A    between atoms: _544  and  _547
REMARK  230  A    between atoms: _547  and  _548
REMARK  231  A    between atoms: _550  and  _552
REMARK  232  A    between atoms: _552  and  _553
REMARK  233  A    between atoms: _552  and  _555
REMARK  234  A    between atoms: _555  and  _556
REMARK  235  A    between atoms: _556  and  _557
REMARK  236  A    between atoms: _557  and  _558
REMARK  237  A    between atoms: _558  and  _559
REMARK  238  A    between atoms: _563  and  _565
REMARK  239  A    between atoms: _565  and  _566
REMARK  240  A    between atoms: _565  and  _568
REMARK  241  A    between atoms: _568  and  _569
REMARK  242  A    between atoms: _572  and  _574
REMARK  243  A    between atoms: _574  and  _575
REMARK  244  A    between atoms: _577  and  _579
REMARK  245  A    between atoms: _579  and  _580
REMARK  246  A    between atoms: _579  and  _582
REMARK  247  A    between atoms: _582  and  _583
REMARK  248  A    between atoms: _586  and  _588
REMARK  249  A    between atoms: _588  and  _589
REMARK  250  A    between atoms: _588  and  _591
REMARK  251  A    between atoms: _591  and  _592
REMARK  252  A    between atoms: _598  and  _600
REMARK  253  A    between atoms: _600  and  _601
REMARK  254  A    between atoms: _603  and  _605
REMARK  255  A    between atoms: _605  and  _606
REMARK  256  A    between atoms: _605  and  _608
REMARK  257  A    between atoms: _608  and  _609
REMARK  258  A    between atoms: _612  and  _614
REMARK  259  A    between atoms: _614  and  _615
REMARK  260  A    between atoms: _614  and  _617
REMARK  261  A    between atoms: _617  and  _618
REMARK  262  A    between atoms: _620  and  _622
REMARK  263  A    between atoms: _622  and  _623
REMARK  264  A    between atoms: _622  and  _625
REMARK  265  A    between atoms: _625  and  _626
REMARK  266  A    between atoms: _626  and  _627
REMARK  267  A    between atoms: _627  and  _628
REMARK  268  A    between atoms: _637  and  _639
REMARK  269  A    between atoms: _639  and  _640
REMARK  270  A    between atoms: _639  and  _642
REMARK  271  A    between atoms: _642  and  _643
REMARK  272  A    between atoms: _648  and  _649
REMARK  273  A    between atoms: _651  and  _653
REMARK  274  A    between atoms: _653  and  _654
REMARK  275  A    between atoms: _653  and  _656
REMARK  276  A    between atoms: _656  and  _657
REMARK  277  A    between atoms: _657  and  _658
REMARK  278  A    between atoms: _660  and  _662
REMARK  279  A    between atoms: _662  and  _663
REMARK  280  A    between atoms: _662  and  _665
REMARK  281  A    between atoms: _665  and  _666
REMARK                            x       y       z     vdW  Elec       q    Type
REMARK                         _______ _______ _______ _____ _____    ______ ____
ROOT
ATOM      1  O   HOH     1     -27.648 -26.070   5.875  0.00  0.00    +0.000 OA
ENDROOT
TORSDOF 0
REMARK  Name = ../refined-set-2016/4k9y/4k9y_pocket.pdb
REMARK  281 active torsions:
REMARK  status: ('A' for Active; 'I' for Inactive)
REMARK    1  A    between atoms: _1  and  _3
REMARK    2  A    between atoms: _3  and  _4
REMARK    3  A    between atoms: _3  and  _6
REMARK    4  A    between atoms: _6  and  _7
REMARK    5  A    between atoms: _7  and  _8
REMARK    6  A    between atoms: _8  and  _9
REMARK    7  A    between atoms: _18  and  _20
REMARK    8  A    between atoms: _20  and  _21
REMARK    9  A    between atoms: _20  and  _23
REMARK   10  A    between atoms: _23  and  _24
REMARK   11  A    between atoms: _27  and  _29
REMARK   12  A    between atoms: _29  and  _30
REMARK   13  A    between atoms: _32  and  _34
REMARK   14  A    between atoms: _34  and  _35
REMARK   15  A    between atoms: _34  and  _37
REMARK   16  A    between atoms: _37  and  _38
REMARK   17  A    between atoms: _38  and  _39
REMARK   18  A    between atoms: _42  and  _44
REMARK   19  A    between atoms: _44  and  _45
REMARK   20  A    between atoms: _44  and  _47
REMARK   21  A    between atoms: _47  and  _48
REMARK   22  A    between atoms: _54  and  _56
REMARK   23  A    between atoms: _56  and  _57
REMARK   24  A    between atoms: _56  and  _59
REMARK   25  A    between atoms: _62  and  _64
REMARK   26  A    between atoms: _64  and  _65
REMARK   27  A    between atoms: _64  and  _67
REMARK   28  A    between atoms: _67  and  _68
REMARK   29  A    between atoms: _73  and  _75
REMARK   30  A    between atoms: _75  and  _76
REMARK   31  A    between atoms: _75  and  _78
REMARK   32  A    between atoms: _78  and  _79
REMARK   33  A    between atoms: _79  and  _80
REMARK   34  A    between atoms: _85  and  _87
REMARK   35  A    between atoms: _87  and  _88
REMARK   36  A    between atoms: _91  and  _93
REMARK   37  A    between atoms: _93  and  _94
REMARK   38  A    between atoms: _93  and  _96
REMARK   39  A    between atoms: _99  and  _101
REMARK   40  A    between atoms: _101  and  _102
REMARK   41  A    between atoms: _105  and  _107
REMARK   42  A    between atoms: _107  and  _108
REMARK   43  A    between atoms: _107  and  _110
REMARK   44  A    between atoms: _110  and  _111
REMARK   45  A    between atoms: _114  and  _116
REMARK   46  A    between atoms: _116  and  _117
REMARK   47  A    between atoms: _116  and  _119
REMARK   48  A    between atoms: _119  and  _120
REMARK   49  A    between atoms: _120  and  _121
REMARK   50  A    between atoms: _121  and  _122
REMARK   51  A    between atoms: _122  and  _123
REMARK   52  A    between atoms: _127  and  _129
REMARK   53  A    between atoms: _129  and  _130
REMARK   54  A    between atoms: _129  and  _132
REMARK   55  A    between atoms: _132  and  _133
REMARK   56  A    between atoms: _133  and  _134
REMARK   57  A    between atoms: _134  and  _135
REMARK   58  A    between atoms: _135  and  _136
REMARK   59  A    between atoms: _140  and  _142
REMARK   60  A    between atoms: _142  and  _143
REMARK   61  A    between atoms: _142  and  _145
REMARK   62  A    between atoms: _145  and  _146
REMARK   63  A    between atoms: _152  and  _154
REMARK   64  A    between atoms: _154  and  _155
REMARK   65  A    between atoms: _154  and  _157
REMARK   66  A    between atoms: _157  and  _158
REMARK   67  A    between atoms: _161  and  _163
REMARK   68  A    between atoms: _163  and  _164
REMARK   69  A    between atoms: _163  and  _166
REMARK   70  A    between atoms: _166  and  _167
REMARK   71  A    between atoms: _167  and  _168
REMARK   72  A    between atoms: _173  and  _175
REMARK   73  A    between atoms: _175  and  _176
REMARK   74  A    between atoms: _175  and  _178
REMARK   75  A    between atoms: _178  and  _179
REMARK   76  A    between atoms: _179  and  _180
REMARK   77  A    between atoms: _183  and  _185
REMARK   78  A    between atoms: _185  and  _186
REMARK   79  A    between atoms: _189  and  _191
REMARK   80  A    between atoms: _191  and  _192
REMARK   81  A    between atoms: _191  and  _194
REMARK   82  A    between atoms: _194  and  _195
REMARK   83  A    between atoms: _198  and  _200
REMARK   84  A    between atoms: _200  and  _201
REMARK   85  A    between atoms: _200  and  _203
REMARK   86  A    between atoms: _203  and  _204
REMARK   87  A    between atoms: _207  and  _209
REMARK   88  A    between atoms: _209  and  _210
REMARK   89  A    between atoms: _209  and  _212
REMARK   90  A    between atoms: _212  and  _213
REMARK   91  A    between atoms: _213  and  _214
REMARK   92  A    between atoms: _216  and  _218
REMARK   93  A    between atoms: _218  and  _219
REMARK   94  A    between atoms: _218  and  _221
REMARK   95  A    between atoms: _221  and  _222
REMARK   96  A    between atoms: _222  and  _223
REMARK   97  A    between atoms: _223  and  _224
REMARK   98  A    between atoms: _233  and  _235
REMARK   99  A    between atoms: _235  and  _236
REMARK  100  A    between atoms: _235  and  _238
REMARK  101  A    between atoms: _238  and  _239
REMARK  102  A    between atoms: _239  and  _240
REMARK  103  A    between atoms: _245  and  _247
REMARK  104  A    between atoms: _247  and  _248
REMARK  105  A    between atoms: _247  and  _250
REMARK  106  A    between atoms: _250  and  _251
REMARK  107  A    between atoms: _257  and  _259
REMARK  108  A    between atoms: _259  and  _260
REMARK  109  A    between atoms: _259  and  _262
REMARK  110  A    between atoms: _262  and  _263
REMARK  111  A    between atoms: _266  and  _268
REMARK  112  A    between atoms: _268  and  _269
REMARK  113  A    between atoms: _268  and  _271
REMARK  114  A    between atoms: _271  and  _272
REMARK  115  A    between atoms: _277  and  _279
REMARK  116  A    between atoms: _279  and  _280
REMARK  117  A    between atoms: _279  and  _282
REMARK  118  A    between atoms: _282  and  _283
REMARK  119  A    between atoms: _286  and  _288
REMARK  120  A    between atoms: _288  and  _289
REMARK  121  A    between atoms: _288  and  _291
REMARK  122  A    between atoms: _294  and  _296
REMARK  123  A    between atoms: _296  and  _297
REMARK  124  A    between atoms: _296  and  _299
REMARK  125  A    between atoms: _299  and  _300
REMARK  126  A    between atoms: _300  and  _301
REMARK  127  A    between atoms: _301  and  _302
REMARK  128  A    between atoms: _302  and  _303
REMARK  129  A    between atoms: _307  and  _309
REMARK  130  A    between atoms: _309  and  _310
REMARK  131  A    between atoms: _309  and  _312
REMARK  132  A    between atoms: _312  and  _313
REMARK  133  A    between atoms: _316  and  _318
REMARK  134  A    between atoms: _318  and  _319
REMARK  135  A    between atoms: _318  and  _321
REMARK  136  A    between atoms: _321  and  _322
REMARK  137  A    between atoms: _325  and  _327
REMARK  138  A    between atoms: _327  and  _328
REMARK  139  A    between atoms: _327  and  _330
REMARK  140  A    between atoms: _330  and  _331
REMARK  141  A    between atoms: _334  and  _336
REMARK  142  A    between atoms: _336  and  _337
REMARK  143  A    between atoms: _336  and  _339
REMARK  144  A    between atoms: _339  and  _340
REMARK  145  A    between atoms: _340  and  _341
REMARK  146  A    between atoms: _343  and  _345
REMARK  147  A    between atoms: _345  and  _346
REMARK  148  A    between atoms: _345  and  _348
REMARK  149  A    between atoms: _348  and  _349
REMARK  150  A    between atoms: _349  and  _350
REMARK  151  A    between atoms: _353  and  _355
REMARK  152  A    between atoms: _355  and  _356
REMARK  153  A    between atoms: _355  and  _358
REMARK  154  A    between atoms: _358  and  _359
REMARK  155  A    between atoms: _362  and  _364
REMARK  156  A    between atoms: _364  and  _365
REMARK  157  A    between atoms: _364  and  _367
REMARK  158  A    between atoms: _369  and  _371
REMARK  159  A    between atoms: _371  and  _372
REMARK  160  A    between atoms: _371  and  _374
REMARK  161  A    between atoms: _374  and  _375
REMARK  162  A    between atoms: _378  and  _380
REMARK  163  A    between atoms: _380  and  _381
REMARK  164  A    between atoms: _380  and  _383
REMARK  165  A    between atoms: _383  and  _384
REMARK  166  A    between atoms: _387  and  _389
REMARK  167  A    between atoms: _389  and  _390
REMARK  168  A    between atoms: _392  and  _394
REMARK  169  A    between atoms: _394  and  _395
REMARK  170  A    between atoms: _394  and  _397
REMARK  171  A    between atoms: _397  and  _398
REMARK  172  A    between atoms: _398  and  _399
REMARK  173  A    between atoms: _402  and  _404
REMARK  174  A    between atoms: _404  and  _405
REMARK  175  A    between atoms: _408  and  _410
REMARK  176  A    between atoms: _410  and  _411
REMARK  177  A    between atoms: _410  and  _413
REMARK  178  A    between atoms: _413  and  _414
REMARK  179  A    between atoms: _417  and  _419
REMARK  180  A    between atoms: _419  and  _420
REMARK  181  A    between atoms: _419  and  _422
REMARK  182  A    between atoms: _422  and  _423
REMARK  183  A    between atoms: _428  and  _429
REMARK  184  A    between atoms: _431  and  _433
REMARK  185  A    between atoms: _433  and  _434
REMARK  186  A    between atoms: _433  and  _436
REMARK  187  A    between atoms: _436  and  _437
REMARK  188  A    between atoms: _440  and  _442
REMARK  189  A    between atoms: _442  and  _443
REMARK  190  A    between atoms: _442  and  _445
REMARK  191  A    between atoms: _445  and  _446
REMARK  192  A    between atoms: _452  and  _454
REMARK  193  A    between atoms: _454  and  _455
REMARK  194  A    between atoms: _454  and  _457
REMARK  195  A    between atoms: _460  and  _462
REMARK  196  A    between atoms: _462  and  _463
REMARK  197  A    between atoms: _462  and  _465
REMARK  198  A    between atoms: _465  and  _466
REMARK  199  A    between atoms: _471  and  _473
REMARK  200  A    between atoms: _473  and  _474
REMARK  201  A    between atoms: _473  and  _476
REMARK  202  A    between atoms: _476  and  _477
REMARK  203  A    between atoms: _477  and  _478
REMARK  204  A    between atoms: _478  and  _479
REMARK  205  A    between atoms: _488  and  _490
REMARK  206  A    between atoms: _490  and  _491
REMARK  207  A    between atoms: _490  and  _493
REMARK  208  A    between atoms: _493  and  _494
REMARK  209  A    between atoms: _497  and  _499
REMARK  210  A    between atoms: _499  and  _500
REMARK  211  A    between atoms: _499  and  _502
REMARK  212  A    between atoms: _502  and  _503
REMARK  213  A    between atoms: _506  and  _508
REMARK  214  A    between atoms: _508  and  _509
REMARK  215  A    between atoms: _508  and  _511
REMARK  216  A    between atoms: _511  and  _512
REMARK  217  A    between atoms: _517  and  _519
REMARK  218  A    between atoms: _519  and  _520
REMARK  219  A    between atoms: _519  and  _522
REMARK  220  A    between atoms: _525  and  _527
REMARK  221  A    between atoms: _527  and  _528
REMARK  222  A    between atoms: _527  and  _530
REMARK  223  A    between atoms: _530  and  _531
REMARK  224  A    between atoms: _534  and  _536
REMARK  225  A    between atoms: _536  and  _537
REMARK  226  A    between atoms: _536  and  _539
REMARK  227  A    between atoms: _542  and  _544
REMARK  228  A    between atoms: _544  and  _545
REMARK  229  A    between atoms: _544  and  _547
REMARK  230  A    between atoms: _547  and  _548
REMARK  231  A    between atoms: _550  and  _552
REMARK  232  A    between atoms: _552  and  _553
REMARK  233  A    between atoms: _552  and  _555
REMARK  234  A    between atoms: _555  and  _556
REMARK  235  A    between atoms: _556  and  _557
REMARK  236  A    between atoms: _557  and  _558
REMARK  237  A    between atoms: _558  and  _559
REMARK  238  A    between atoms: _563  and  _565
REMARK  239  A    between atoms: _565  and  _566
REMARK  240  A    between atoms: _565  and  _568
REMARK  241  A    between atoms: _568  and  _569
REMARK  242  A    between atoms: _572  and  _574
REMARK  243  A    between atoms: _574  and  _575
REMARK  244  A    between atoms: _577  and  _579
REMARK  245  A    between atoms: _579  and  _580
REMARK  246  A    between atoms: _579  and  _582
REMARK  247  A    between atoms: _582  and  _583
REMARK  248  A    between atoms: _586  and  _588
REMARK  249  A    between atoms: _588  and  _589
REMARK  250  A    between atoms: _588  and  _591
REMARK  251  A    between atoms: _591  and  _592
REMARK  252  A    between atoms: _598  and  _600
REMARK  253  A    between atoms: _600  and  _601
REMARK  254  A    between atoms: _603  and  _605
REMARK  255  A    between atoms: _605  and  _606
REMARK  256  A    between atoms: _605  and  _608
REMARK  257  A    between atoms: _608  and  _609
REMARK  258  A    between atoms: _612  and  _614
REMARK  259  A    between atoms: _614  and  _615
REMARK  260  A    between atoms: _614  and  _617
REMARK  261  A    between atoms: _617  and  _618
REMARK  262  A    between atoms: _620  and  _622
REMARK  263  A    between atoms: _622  and  _623
REMARK  264  A    between atoms: _622  and  _625
REMARK  265  A    between atoms: _625  and  _626
REMARK  266  A    between atoms: _626  and  _627
REMARK  267  A    between atoms: _627  and  _628
REMARK  268  A    between atoms: _637  and  _639
REMARK  269  A    between atoms: _639  and  _640
REMARK  270  A    between atoms: _639  and  _642
REMARK  271  A    between atoms: _642  and  _643
REMARK  272  A    between atoms: _648  and  _649
REMARK  273  A    between atoms: _651  and  _653
REMARK  274  A    between atoms: _653  and  _654
REMARK  275  A    between atoms: _653  and  _656
REMARK  276  A    between atoms: _656  and  _657
REMARK  277  A    between atoms: _657  and  _658
REMARK  278  A    between atoms: _660  and  _662
REMARK  279  A    between atoms: _662  and  _663
REMARK  280  A    between atoms: _662  and  _665
REMARK  281  A    between atoms: _665  and  _666
REMARK                            x       y       z     vdW  Elec       q    Type
REMARK                         _______ _______ _______ _____ _____    ______ ____
ROOT
ATOM      1  O   HOH     1     -16.345 -21.405   5.833  0.00  0.00    +0.000 OA
ENDROOT
TORSDOF 0
REMARK  Name = ../refined-set-2016/4k9y/4k9y_pocket.pdb
REMARK  281 active torsions:
REMARK  status: ('A' for Active; 'I' for Inactive)
REMARK    1  A    between atoms: _1  and  _3
REMARK    2  A    between atoms: _3  and  _4
REMARK    3  A    between atoms: _3  and  _6
REMARK    4  A    between atoms: _6  and  _7
REMARK    5  A    between atoms: _7  and  _8
REMARK    6  A    between atoms: _8  and  _9
REMARK    7  A    between atoms: _18  and  _20
REMARK    8  A    between atoms: _20  and  _21
REMARK    9  A    between atoms: _20  and  _23
REMARK   10  A    between atoms: _23  and  _24
REMARK   11  A    between atoms: _27  and  _29
REMARK   12  A    between atoms: _29  and  _30
REMARK   13  A    between atoms: _32  and  _34
REMARK   14  A    between atoms: _34  and  _35
REMARK   15  A    between atoms: _34  and  _37
REMARK   16  A    between atoms: _37  and  _38
REMARK   17  A    between atoms: _38  and  _39
REMARK   18  A    between atoms: _42  and  _44
REMARK   19  A    between atoms: _44  and  _45
REMARK   20  A    between atoms: _44  and  _47
REMARK   21  A    between atoms: _47  and  _48
REMARK   22  A    between atoms: _54  and  _56
REMARK   23  A    between atoms: _56  and  _57
REMARK   24  A    between atoms: _56  and  _59
REMARK   25  A    between atoms: _62  and  _64
REMARK   26  A    between atoms: _64  and  _65
REMARK   27  A    between atoms: _64  and  _67
REMARK   28  A    between atoms: _67  and  _68
REMARK   29  A    between atoms: _73  and  _75
REMARK   30  A    between atoms: _75  and  _76
REMARK   31  A    between atoms: _75  and  _78
REMARK   32  A    between atoms: _78  and  _79
REMARK   33  A    between atoms: _79  and  _80
REMARK   34  A    between atoms: _85  and  _87
REMARK   35  A    between atoms: _87  and  _88
REMARK   36  A    between atoms: _91  and  _93
REMARK   37  A    between atoms: _93  and  _94
REMARK   38  A    between atoms: _93  and  _96
REMARK   39  A    between atoms: _99  and  _101
REMARK   40  A    between atoms: _101  and  _102
REMARK   41  A    between atoms: _105  and  _107
REMARK   42  A    between atoms: _107  and  _108
REMARK   43  A    between atoms: _107  and  _110
REMARK   44  A    between atoms: _110  and  _111
REMARK   45  A    between atoms: _114  and  _116
REMARK   46  A    between atoms: _116  and  _117
REMARK   47  A    between atoms: _116  and  _119
REMARK   48  A    between atoms: _119  and  _120
REMARK   49  A    between atoms: _120  and  _121
REMARK   50  A    between atoms: _121  and  _122
REMARK   51  A    between atoms: _122  and  _123
REMARK   52  A    between atoms: _127  and  _129
REMARK   53  A    between atoms: _129  and  _130
REMARK   54  A    between atoms: _129  and  _132
REMARK   55  A    between atoms: _132  and  _133
REMARK   56  A    between atoms: _133  and  _134
REMARK   57  A    between atoms: _134  and  _135
REMARK   58  A    between atoms: _135  and  _136
REMARK   59  A    between atoms: _140  and  _142
REMARK   60  A    between atoms: _142  and  _143
REMARK   61  A    between atoms: _142  and  _145
REMARK   62  A    between atoms: _145  and  _146
REMARK   63  A    between atoms: _152  and  _154
REMARK   64  A    between atoms: _154  and  _155
REMARK   65  A    between atoms: _154  and  _157
REMARK   66  A    between atoms: _157  and  _158
REMARK   67  A    between atoms: _161  and  _163
REMARK   68  A    between atoms: _163  and  _164
REMARK   69  A    between atoms: _163  and  _166
REMARK   70  A    between atoms: _166  and  _167
REMARK   71  A    between atoms: _167  and  _168
REMARK   72  A    between atoms: _173  and  _175
REMARK   73  A    between atoms: _175  and  _176
REMARK   74  A    between atoms: _175  and  _178
REMARK   75  A    between atoms: _178  and  _179
REMARK   76  A    between atoms: _179  and  _180
REMARK   77  A    between atoms: _183  and  _185
REMARK   78  A    between atoms: _185  and  _186
REMARK   79  A    between atoms: _189  and  _191
REMARK   80  A    between atoms: _191  and  _192
REMARK   81  A    between atoms: _191  and  _194
REMARK   82  A    between atoms: _194  and  _195
REMARK   83  A    between atoms: _198  and  _200
REMARK   84  A    between atoms: _200  and  _201
REMARK   85  A    between atoms: _200  and  _203
REMARK   86  A    between atoms: _203  and  _204
REMARK   87  A    between atoms: _207  and  _209
REMARK   88  A    between atoms: _209  and  _210
REMARK   89  A    between atoms: _209  and  _212
REMARK   90  A    between atoms: _212  and  _213
REMARK   91  A    between atoms: _213  and  _214
REMARK   92  A    between atoms: _216  and  _218
REMARK   93  A    between atoms: _218  and  _219
REMARK   94  A    between atoms: _218  and  _221
REMARK   95  A    between atoms: _221  and  _222
REMARK   96  A    between atoms: _222  and  _223
REMARK   97  A    between atoms: _223  and  _224
REMARK   98  A    between atoms: _233  and  _235
REMARK   99  A    between atoms: _235  and  _236
REMARK  100  A    between atoms: _235  and  _238
REMARK  101  A    between atoms: _238  and  _239
REMARK  102  A    between atoms: _239  and  _240
REMARK  103  A    between atoms: _245  and  _247
REMARK  104  A    between atoms: _247  and  _248
REMARK  105  A    between atoms: _247  and  _250
REMARK  106  A    between atoms: _250  and  _251
REMARK  107  A    between atoms: _257  and  _259
REMARK  108  A    between atoms: _259  and  _260
REMARK  109  A    between atoms: _259  and  _262
REMARK  110  A    between atoms: _262  and  _263
REMARK  111  A    between atoms: _266  and  _268
REMARK  112  A    between atoms: _268  and  _269
REMARK  113  A    between atoms: _268  and  _271
REMARK  114  A    between atoms: _271  and  _272
REMARK  115  A    between atoms: _277  and  _279
REMARK  116  A    between atoms: _279  and  _280
REMARK  117  A    between atoms: _279  and  _282
REMARK  118  A    between atoms: _282  and  _283
REMARK  119  A    between atoms: _286  and  _288
REMARK  120  A    between atoms: _288  and  _289
REMARK  121  A    between atoms: _288  and  _291
REMARK  122  A    between atoms: _294  and  _296
REMARK  123  A    between atoms: _296  and  _297
REMARK  124  A    between atoms: _296  and  _299
REMARK  125  A    between atoms: _299  and  _300
REMARK  126  A    between atoms: _300  and  _301
REMARK  127  A    between atoms: _301  and  _302
REMARK  128  A    between atoms: _302  and  _303
REMARK  129  A    between atoms: _307  and  _309
REMARK  130  A    between atoms: _309  and  _310
REMARK  131  A    between atoms: _309  and  _312
REMARK  132  A    between atoms: _312  and  _313
REMARK  133  A    between atoms: _316  and  _318
REMARK  134  A    between atoms: _318  and  _319
REMARK  135  A    between atoms: _318  and  _321
REMARK  136  A    between atoms: _321  and  _322
REMARK  137  A    between atoms: _325  and  _327
REMARK  138  A    between atoms: _327  and  _328
REMARK  139  A    between atoms: _327  and  _330
REMARK  140  A    between atoms: _330  and  _331
REMARK  141  A    between atoms: _334  and  _336
REMARK  142  A    between atoms: _336  and  _337
REMARK  143  A    between atoms: _336  and  _339
REMARK  144  A    between atoms: _339  and  _340
REMARK  145  A    between atoms: _340  and  _341
REMARK  146  A    between atoms: _343  and  _345
REMARK  147  A    between atoms: _345  and  _346
REMARK  148  A    between atoms: _345  and  _348
REMARK  149  A    between atoms: _348  and  _349
REMARK  150  A    between atoms: _349  and  _350
REMARK  151  A    between atoms: _353  and  _355
REMARK  152  A    between atoms: _355  and  _356
REMARK  153  A    between atoms: _355  and  _358
REMARK  154  A    between atoms: _358  and  _359
REMARK  155  A    between atoms: _362  and  _364
REMARK  156  A    between atoms: _364  and  _365
REMARK  157  A    between atoms: _364  and  _367
REMARK  158  A    between atoms: _369  and  _371
REMARK  159  A    between atoms: _371  and  _372
REMARK  160  A    between atoms: _371  and  _374
REMARK  161  A    between atoms: _374  and  _375
REMARK  162  A    between atoms: _378  and  _380
REMARK  163  A    between atoms: _380  and  _381
REMARK  164  A    between atoms: _380  and  _383
REMARK  165  A    between atoms: _383  and  _384
REMARK  166  A    between atoms: _387  and  _389
REMARK  167  A    between atoms: _389  and  _390
REMARK  168  A    between atoms: _392  and  _394
REMARK  169  A    between atoms: _394  and  _395
REMARK  170  A    between atoms: _394  and  _397
REMARK  171  A    between atoms: _397  and  _398
REMARK  172  A    between atoms: _398  and  _399
REMARK  173  A    between atoms: _402  and  _404
REMARK  174  A    between atoms: _404  and  _405
REMARK  175  A    between atoms: _408  and  _410
REMARK  176  A    between atoms: _410  and  _411
REMARK  177  A    between atoms: _410  and  _413
REMARK  178  A    between atoms: _413  and  _414
REMARK  179  A    between atoms: _417  and  _419
REMARK  180  A    between atoms: _419  and  _420
REMARK  181  A    between atoms: _419  and  _422
REMARK  182  A    between atoms: _422  and  _423
REMARK  183  A    between atoms: _428  and  _429
REMARK  184  A    between atoms: _431  and  _433
REMARK  185  A    between atoms: _433  and  _434
REMARK  186  A    between atoms: _433  and  _436
REMARK  187  A    between atoms: _436  and  _437
REMARK  188  A    between atoms: _440  and  _442
REMARK  189  A    between atoms: _442  and  _443
REMARK  190  A    between atoms: _442  and  _445
REMARK  191  A    between atoms: _445  and  _446
REMARK  192  A    between atoms: _452  and  _454
REMARK  193  A    between atoms: _454  and  _455
REMARK  194  A    between atoms: _454  and  _457
REMARK  195  A    between atoms: _460  and  _462
REMARK  196  A    between atoms: _462  and  _463
REMARK  197  A    between atoms: _462  and  _465
REMARK  198  A    between atoms: _465  and  _466
REMARK  199  A    between atoms: _471  and  _473
REMARK  200  A    between atoms: _473  and  _474
REMARK  201  A    between atoms: _473  and  _476
REMARK  202  A    between atoms: _476  and  _477
REMARK  203  A    between atoms: _477  and  _478
REMARK  204  A    between atoms: _478  and  _479
REMARK  205  A    between atoms: _488  and  _490
REMARK  206  A    between atoms: _490  and  _491
REMARK  207  A    between atoms: _490  and  _493
REMARK  208  A    between atoms: _493  and  _494
REMARK  209  A    between atoms: _497  and  _499
REMARK  210  A    between atoms: _499  and  _500
REMARK  211  A    between atoms: _499  and  _502
REMARK  212  A    between atoms: _502  and  _503
REMARK  213  A    between atoms: _506  and  _508
REMARK  214  A    between atoms: _508  and  _509
REMARK  215  A    between atoms: _508  and  _511
REMARK  216  A    between atoms: _511  and  _512
REMARK  217  A    between atoms: _517  and  _519
REMARK  218  A    between atoms: _519  and  _520
REMARK  219  A    between atoms: _519  and  _522
REMARK  220  A    between atoms: _525  and  _527
REMARK  221  A    between atoms: _527  and  _528
REMARK  222  A    between atoms: _527  and  _530
REMARK  223  A    between atoms: _530  and  _531
REMARK  224  A    between atoms: _534  and  _536
REMARK  225  A    between atoms: _536  and  _537
REMARK  226  A    between atoms: _536  and  _539
REMARK  227  A    between atoms: _542  and  _544
REMARK  228  A    between atoms: _544  and  _545
REMARK  229  A    between atoms: _544  and  _547
REMARK  230  A    between atoms: _547  and  _548
REMARK  231  A    between atoms: _550  and  _552
REMARK  232  A    between atoms: _552  and  _553
REMARK  233  A    between atoms: _552  and  _555
REMARK  234  A    between atoms: _555  and  _556
REMARK  235  A    between atoms: _556  and  _557
REMARK  236  A    between atoms: _557  and  _558
REMARK  237  A    between atoms: _558  and  _559
REMARK  238  A    between atoms: _563  and  _565
REMARK  239  A    between atoms: _565  and  _566
REMARK  240  A    between atoms: _565  and  _568
REMARK  241  A    between atoms: _568  and  _569
REMARK  242  A    between atoms: _572  and  _574
REMARK  243  A    between atoms: _574  and  _575
REMARK  244  A    between atoms: _577  and  _579
REMARK  245  A    between atoms: _579  and  _580
REMARK  246  A    between atoms: _579  and  _582
REMARK  247  A    between atoms: _582  and  _583
REMARK  248  A    between atoms: _586  and  _588
REMARK  249  A    between atoms: _588  and  _589
REMARK  250  A    between atoms: _588  and  _591
REMARK  251  A    between atoms: _591  and  _592
REMARK  252  A    between atoms: _598  and  _600
REMARK  253  A    between atoms: _600  and  _601
REMARK  254  A    between atoms: _603  and  _605
REMARK  255  A    between atoms: _605  and  _606
REMARK  256  A    between atoms: _605  and  _608
REMARK  257  A    between atoms: _608  and  _609
REMARK  258  A    between atoms: _612  and  _614
REMARK  259  A    between atoms: _614  and  _615
REMARK  260  A    between atoms: _614  and  _617
REMARK  261  A    between atoms: _617  and  _618
REMARK  262  A    between atoms: _620  and  _622
REMARK  263  A    between atoms: _622  and  _623
REMARK  264  A    between atoms: _622  and  _625
REMARK  265  A    between atoms: _625  and  _626
REMARK  266  A    between atoms: _626  and  _627
REMARK  267  A    between atoms: _627  and  _628
REMARK  268  A    between atoms: _637  and  _639
REMARK  269  A    between atoms: _639  and  _640
REMARK  270  A    between atoms: _639  and  _642
REMARK  271  A    between atoms: _642  and  _643
REMARK  272  A    between atoms: _648  and  _649
REMARK  273  A    between atoms: _651  and  _653
REMARK  274  A    between atoms: _653  and  _654
REMARK  275  A    between atoms: _653  and  _656
REMARK  276  A    between atoms: _656  and  _657
REMARK  277  A    between atoms: _657  and  _658
REMARK  278  A    between atoms: _660  and  _662
REMARK  279  A    between atoms: _662  and  _663
REMARK  280  A    between atoms: _662  and  _665
REMARK  281  A    between atoms: _665  and  _666
REMARK                            x       y       z     vdW  Elec       q    Type
REMARK                         _______ _______ _______ _____ _____    ______ ____
ROOT
ATOM      1  O   HOH     1     -18.065 -23.382   2.432  0.00  0.00    +0.000 OA
ENDROOT
TORSDOF 0
REMARK  Name = ../refined-set-2016/4k9y/4k9y_pocket.pdb
REMARK  281 active torsions:
REMARK  status: ('A' for Active; 'I' for Inactive)
REMARK    1  A    between atoms: _1  and  _3
REMARK    2  A    between atoms: _3  and  _4
REMARK    3  A    between atoms: _3  and  _6
REMARK    4  A    between atoms: _6  and  _7
REMARK    5  A    between atoms: _7  and  _8
REMARK    6  A    between atoms: _8  and  _9
REMARK    7  A    between atoms: _18  and  _20
REMARK    8  A    between atoms: _20  and  _21
REMARK    9  A    between atoms: _20  and  _23
REMARK   10  A    between atoms: _23  and  _24
REMARK   11  A    between atoms: _27  and  _29
REMARK   12  A    between atoms: _29  and  _30
REMARK   13  A    between atoms: _32  and  _34
REMARK   14  A    between atoms: _34  and  _35
REMARK   15  A    between atoms: _34  and  _37
REMARK   16  A    between atoms: _37  and  _38
REMARK   17  A    between atoms: _38  and  _39
REMARK   18  A    between atoms: _42  and  _44
REMARK   19  A    between atoms: _44  and  _45
REMARK   20  A    between atoms: _44  and  _47
REMARK   21  A    between atoms: _47  and  _48
REMARK   22  A    between atoms: _54  and  _56
REMARK   23  A    between atoms: _56  and  _57
REMARK   24  A    between atoms: _56  and  _59
REMARK   25  A    between atoms: _62  and  _64
REMARK   26  A    between atoms: _64  and  _65
REMARK   27  A    between atoms: _64  and  _67
REMARK   28  A    between atoms: _67  and  _68
REMARK   29  A    between atoms: _73  and  _75
REMARK   30  A    between atoms: _75  and  _76
REMARK   31  A    between atoms: _75  and  _78
REMARK   32  A    between atoms: _78  and  _79
REMARK   33  A    between atoms: _79  and  _80
REMARK   34  A    between atoms: _85  and  _87
REMARK   35  A    between atoms: _87  and  _88
REMARK   36  A    between atoms: _91  and  _93
REMARK   37  A    between atoms: _93  and  _94
REMARK   38  A    between atoms: _93  and  _96
REMARK   39  A    between atoms: _99  and  _101
REMARK   40  A    between atoms: _101  and  _102
REMARK   41  A    between atoms: _105  and  _107
REMARK   42  A    between atoms: _107  and  _108
REMARK   43  A    between atoms: _107  and  _110
REMARK   44  A    between atoms: _110  and  _111
REMARK   45  A    between atoms: _114  and  _116
REMARK   46  A    between atoms: _116  and  _117
REMARK   47  A    between atoms: _116  and  _119
REMARK   48  A    between atoms: _119  and  _120
REMARK   49  A    between atoms: _120  and  _121
REMARK   50  A    between atoms: _121  and  _122
REMARK   51  A    between atoms: _122  and  _123
REMARK   52  A    between atoms: _127  and  _129
REMARK   53  A    between atoms: _129  and  _130
REMARK   54  A    between atoms: _129  and  _132
REMARK   55  A    between atoms: _132  and  _133
REMARK   56  A    between atoms: _133  and  _134
REMARK   57  A    between atoms: _134  and  _135
REMARK   58  A    between atoms: _135  and  _136
REMARK   59  A    between atoms: _140  and  _142
REMARK   60  A    between atoms: _142  and  _143
REMARK   61  A    between atoms: _142  and  _145
REMARK   62  A    between atoms: _145  and  _146
REMARK   63  A    between atoms: _152  and  _154
REMARK   64  A    between atoms: _154  and  _155
REMARK   65  A    between atoms: _154  and  _157
REMARK   66  A    between atoms: _157  and  _158
REMARK   67  A    between atoms: _161  and  _163
REMARK   68  A    between atoms: _163  and  _164
REMARK   69  A    between atoms: _163  and  _166
REMARK   70  A    between atoms: _166  and  _167
REMARK   71  A    between atoms: _167  and  _168
REMARK   72  A    between atoms: _173  and  _175
REMARK   73  A    between atoms: _175  and  _176
REMARK   74  A    between atoms: _175  and  _178
REMARK   75  A    between atoms: _178  and  _179
REMARK   76  A    between atoms: _179  and  _180
REMARK   77  A    between atoms: _183  and  _185
REMARK   78  A    between atoms: _185  and  _186
REMARK   79  A    between atoms: _189  and  _191
REMARK   80  A    between atoms: _191  and  _192
REMARK   81  A    between atoms: _191  and  _194
REMARK   82  A    between atoms: _194  and  _195
REMARK   83  A    between atoms: _198  and  _200
REMARK   84  A    between atoms: _200  and  _201
REMARK   85  A    between atoms: _200  and  _203
REMARK   86  A    between atoms: _203  and  _204
REMARK   87  A    between atoms: _207  and  _209
REMARK   88  A    between atoms: _209  and  _210
REMARK   89  A    between atoms: _209  and  _212
REMARK   90  A    between atoms: _212  and  _213
REMARK   91  A    between atoms: _213  and  _214
REMARK   92  A    between atoms: _216  and  _218
REMARK   93  A    between atoms: _218  and  _219
REMARK   94  A    between atoms: _218  and  _221
REMARK   95  A    between atoms: _221  and  _222
REMARK   96  A    between atoms: _222  and  _223
REMARK   97  A    between atoms: _223  and  _224
REMARK   98  A    between atoms: _233  and  _235
REMARK   99  A    between atoms: _235  and  _236
REMARK  100  A    between atoms: _235  and  _238
REMARK  101  A    between atoms: _238  and  _239
REMARK  102  A    between atoms: _239  and  _240
REMARK  103  A    between atoms: _245  and  _247
REMARK  104  A    between atoms: _247  and  _248
REMARK  105  A    between atoms: _247  and  _250
REMARK  106  A    between atoms: _250  and  _251
REMARK  107  A    between atoms: _257  and  _259
REMARK  108  A    between atoms: _259  and  _260
REMARK  109  A    between atoms: _259  and  _262
REMARK  110  A    between atoms: _262  and  _263
REMARK  111  A    between atoms: _266  and  _268
REMARK  112  A    between atoms: _268  and  _269
REMARK  113  A    between atoms: _268  and  _271
REMARK  114  A    between atoms: _271  and  _272
REMARK  115  A    between atoms: _277  and  _279
REMARK  116  A    between atoms: _279  and  _280
REMARK  117  A    between atoms: _279  and  _282
REMARK  118  A    between atoms: _282  and  _283
REMARK  119  A    between atoms: _286  and  _288
REMARK  120  A    between atoms: _288  and  _289
REMARK  121  A    between atoms: _288  and  _291
REMARK  122  A    between atoms: _294  and  _296
REMARK  123  A    between atoms: _296  and  _297
REMARK  124  A    between atoms: _296  and  _299
REMARK  125  A    between atoms: _299  and  _300
REMARK  126  A    between atoms: _300  and  _301
REMARK  127  A    between atoms: _301  and  _302
REMARK  128  A    between atoms: _302  and  _303
REMARK  129  A    between atoms: _307  and  _309
REMARK  130  A    between atoms: _309  and  _310
REMARK  131  A    between atoms: _309  and  _312
REMARK  132  A    between atoms: _312  and  _313
REMARK  133  A    between atoms: _316  and  _318
REMARK  134  A    between atoms: _318  and  _319
REMARK  135  A    between atoms: _318  and  _321
REMARK  136  A    between atoms: _321  and  _322
REMARK  137  A    between atoms: _325  and  _327
REMARK  138  A    between atoms: _327  and  _328
REMARK  139  A    between atoms: _327  and  _330
REMARK  140  A    between atoms: _330  and  _331
REMARK  141  A    between atoms: _334  and  _336
REMARK  142  A    between atoms: _336  and  _337
REMARK  143  A    between atoms: _336  and  _339
REMARK  144  A    between atoms: _339  and  _340
REMARK  145  A    between atoms: _340  and  _341
REMARK  146  A    between atoms: _343  and  _345
REMARK  147  A    between atoms: _345  and  _346
REMARK  148  A    between atoms: _345  and  _348
REMARK  149  A    between atoms: _348  and  _349
REMARK  150  A    between atoms: _349  and  _350
REMARK  151  A    between atoms: _353  and  _355
REMARK  152  A    between atoms: _355  and  _356
REMARK  153  A    between atoms: _355  and  _358
REMARK  154  A    between atoms: _358  and  _359
REMARK  155  A    between atoms: _362  and  _364
REMARK  156  A    between atoms: _364  and  _365
REMARK  157  A    between atoms: _364  and  _367
REMARK  158  A    between atoms: _369  and  _371
REMARK  159  A    between atoms: _371  and  _372
REMARK  160  A    between atoms: _371  and  _374
REMARK  161  A    between atoms: _374  and  _375
REMARK  162  A    between atoms: _378  and  _380
REMARK  163  A    between atoms: _380  and  _381
REMARK  164  A    between atoms: _380  and  _383
REMARK  165  A    between atoms: _383  and  _384
REMARK  166  A    between atoms: _387  and  _389
REMARK  167  A    between atoms: _389  and  _390
REMARK  168  A    between atoms: _392  and  _394
REMARK  169  A    between atoms: _394  and  _395
REMARK  170  A    between atoms: _394  and  _397
REMARK  171  A    between atoms: _397  and  _398
REMARK  172  A    between atoms: _398  and  _399
REMARK  173  A    between atoms: _402  and  _404
REMARK  174  A    between atoms: _404  and  _405
REMARK  175  A    between atoms: _408  and  _410
REMARK  176  A    between atoms: _410  and  _411
REMARK  177  A    between atoms: _410  and  _413
REMARK  178  A    between atoms: _413  and  _414
REMARK  179  A    between atoms: _417  and  _419
REMARK  180  A    between atoms: _419  and  _420
REMARK  181  A    between atoms: _419  and  _422
REMARK  182  A    between atoms: _422  and  _423
REMARK  183  A    between atoms: _428  and  _429
REMARK  184  A    between atoms: _431  and  _433
REMARK  185  A    between atoms: _433  and  _434
REMARK  186  A    between atoms: _433  and  _436
REMARK  187  A    between atoms: _436  and  _437
REMARK  188  A    between atoms: _440  and  _442
REMARK  189  A    between atoms: _442  and  _443
REMARK  190  A    between atoms: _442  and  _445
REMARK  191  A    between atoms: _445  and  _446
REMARK  192  A    between atoms: _452  and  _454
REMARK  193  A    between atoms: _454  and  _455
REMARK  194  A    between atoms: _454  and  _457
REMARK  195  A    between atoms: _460  and  _462
REMARK  196  A    between atoms: _462  and  _463
REMARK  197  A    between atoms: _462  and  _465
REMARK  198  A    between atoms: _465  and  _466
REMARK  199  A    between atoms: _471  and  _473
REMARK  200  A    between atoms: _473  and  _474
REMARK  201  A    between atoms: _473  and  _476
REMARK  202  A    between atoms: _476  and  _477
REMARK  203  A    between atoms: _477  and  _478
REMARK  204  A    between atoms: _478  and  _479
REMARK  205  A    between atoms: _488  and  _490
REMARK  206  A    between atoms: _490  and  _491
REMARK  207  A    between atoms: _490  and  _493
REMARK  208  A    between atoms: _493  and  _494
REMARK  209  A    between atoms: _497  and  _499
REMARK  210  A    between atoms: _499  and  _500
REMARK  211  A    between atoms: _499  and  _502
REMARK  212  A    between atoms: _502  and  _503
REMARK  213  A    between atoms: _506  and  _508
REMARK  214  A    between atoms: _508  and  _509
REMARK  215  A    between atoms: _508  and  _511
REMARK  216  A    between atoms: _511  and  _512
REMARK  217  A    between atoms: _517  and  _519
REMARK  218  A    between atoms: _519  and  _520
REMARK  219  A    between atoms: _519  and  _522
REMARK  220  A    between atoms: _525  and  _527
REMARK  221  A    between atoms: _527  and  _528
REMARK  222  A    between atoms: _527  and  _530
REMARK  223  A    between atoms: _530  and  _531
REMARK  224  A    between atoms: _534  and  _536
REMARK  225  A    between atoms: _536  and  _537
REMARK  226  A    between atoms: _536  and  _539
REMARK  227  A    between atoms: _542  and  _544
REMARK  228  A    between atoms: _544  and  _545
REMARK  229  A    between atoms: _544  and  _547
REMARK  230  A    between atoms: _547  and  _548
REMARK  231  A    between atoms: _550  and  _552
REMARK  232  A    between atoms: _552  and  _553
REMARK  233  A    between atoms: _552  and  _555
REMARK  234  A    between atoms: _555  and  _556
REMARK  235  A    between atoms: _556  and  _557
REMARK  236  A    between atoms: _557  and  _558
REMARK  237  A    between atoms: _558  and  _559
REMARK  238  A    between atoms: _563  and  _565
REMARK  239  A    between atoms: _565  and  _566
REMARK  240  A    between atoms: _565  and  _568
REMARK  241  A    between atoms: _568  and  _569
REMARK  242  A    between atoms: _572  and  _574
REMARK  243  A    between atoms: _574  and  _575
REMARK  244  A    between atoms: _577  and  _579
REMARK  245  A    between atoms: _579  and  _580
REMARK  246  A    between atoms: _579  and  _582
REMARK  247  A    between atoms: _582  and  _583
REMARK  248  A    between atoms: _586  and  _588
REMARK  249  A    between atoms: _588  and  _589
REMARK  250  A    between atoms: _588  and  _591
REMARK  251  A    between atoms: _591  and  _592
REMARK  252  A    between atoms: _598  and  _600
REMARK  253  A    between atoms: _600  and  _601
REMARK  254  A    between atoms: _603  and  _605
REMARK  255  A    between atoms: _605  and  _606
REMARK  256  A    between atoms: _605  and  _608
REMARK  257  A    between atoms: _608  and  _609
REMARK  258  A    between atoms: _612  and  _614
REMARK  259  A    between atoms: _614  and  _615
REMARK  260  A    between atoms: _614  and  _617
REMARK  261  A    between atoms: _617  and  _618
REMARK  262  A    between atoms: _620  and  _622
REMARK  263  A    between atoms: _622  and  _623
REMARK  264  A    between atoms: _622  and  _625
REMARK  265  A    between atoms: _625  and  _626
REMARK  266  A    between atoms: _626  and  _627
REMARK  267  A    between atoms: _627  and  _628
REMARK  268  A    between atoms: _637  and  _639
REMARK  269  A    between atoms: _639  and  _640
REMARK  270  A    between atoms: _639  and  _642
REMARK  271  A    between atoms: _642  and  _643
REMARK  272  A    between atoms: _648  and  _649
REMARK  273  A    between atoms: _651  and  _653
REMARK  274  A    between atoms: _653  and  _654
REMARK  275  A    between atoms: _653  and  _656
REMARK  276  A    between atoms: _656  and  _657
REMARK  277  A    between atoms: _657  and  _658
REMARK  278  A    between atoms: _660  and  _662
REMARK  279  A    between atoms: _662  and  _663
REMARK  280  A    between atoms: _662  and  _665
REMARK  281  A    between atoms: _665  and  _666
REMARK                            x       y       z     vdW  Elec       q    Type
REMARK                         _______ _______ _______ _____ _____    ______ ____
ROOT
ATOM      1  O   HOH     1     -26.314 -41.198   7.818  0.00  0.00    +0.000 OA
ENDROOT
TORSDOF 0
REMARK  Name = ../refined-set-2016/4k9y/4k9y_pocket.pdb
REMARK  281 active torsions:
REMARK  status: ('A' for Active; 'I' for Inactive)
REMARK    1  A    between atoms: _1  and  _3
REMARK    2  A    between atoms: _3  and  _4
REMARK    3  A    between atoms: _3  and  _6
REMARK    4  A    between atoms: _6  and  _7
REMARK    5  A    between atoms: _7  and  _8
REMARK    6  A    between atoms: _8  and  _9
REMARK    7  A    between atoms: _18  and  _20
REMARK    8  A    between atoms: _20  and  _21
REMARK    9  A    between atoms: _20  and  _23
REMARK   10  A    between atoms: _23  and  _24
REMARK   11  A    between atoms: _27  and  _29
REMARK   12  A    between atoms: _29  and  _30
REMARK   13  A    between atoms: _32  and  _34
REMARK   14  A    between atoms: _34  and  _35
REMARK   15  A    between atoms: _34  and  _37
REMARK   16  A    between atoms: _37  and  _38
REMARK   17  A    between atoms: _38  and  _39
REMARK   18  A    between atoms: _42  and  _44
REMARK   19  A    between atoms: _44  and  _45
REMARK   20  A    between atoms: _44  and  _47
REMARK   21  A    between atoms: _47  and  _48
REMARK   22  A    between atoms: _54  and  _56
REMARK   23  A    between atoms: _56  and  _57
REMARK   24  A    between atoms: _56  and  _59
REMARK   25  A    between atoms: _62  and  _64
REMARK   26  A    between atoms: _64  and  _65
REMARK   27  A    between atoms: _64  and  _67
REMARK   28  A    between atoms: _67  and  _68
REMARK   29  A    between atoms: _73  and  _75
REMARK   30  A    between atoms: _75  and  _76
REMARK   31  A    between atoms: _75  and  _78
REMARK   32  A    between atoms: _78  and  _79
REMARK   33  A    between atoms: _79  and  _80
REMARK   34  A    between atoms: _85  and  _87
REMARK   35  A    between atoms: _87  and  _88
REMARK   36  A    between atoms: _91  and  _93
REMARK   37  A    between atoms: _93  and  _94
REMARK   38  A    between atoms: _93  and  _96
REMARK   39  A    between atoms: _99  and  _101
REMARK   40  A    between atoms: _101  and  _102
REMARK   41  A    between atoms: _105  and  _107
REMARK   42  A    between atoms: _107  and  _108
REMARK   43  A    between atoms: _107  and  _110
REMARK   44  A    between atoms: _110  and  _111
REMARK   45  A    between atoms: _114  and  _116
REMARK   46  A    between atoms: _116  and  _117
REMARK   47  A    between atoms: _116  and  _119
REMARK   48  A    between atoms: _119  and  _120
REMARK   49  A    between atoms: _120  and  _121
REMARK   50  A    between atoms: _121  and  _122
REMARK   51  A    between atoms: _122  and  _123
REMARK   52  A    between atoms: _127  and  _129
REMARK   53  A    between atoms: _129  and  _130
REMARK   54  A    between atoms: _129  and  _132
REMARK   55  A    between atoms: _132  and  _133
REMARK   56  A    between atoms: _133  and  _134
REMARK   57  A    between atoms: _134  and  _135
REMARK   58  A    between atoms: _135  and  _136
REMARK   59  A    between atoms: _140  and  _142
REMARK   60  A    between atoms: _142  and  _143
REMARK   61  A    between atoms: _142  and  _145
REMARK   62  A    between atoms: _145  and  _146
REMARK   63  A    between atoms: _152  and  _154
REMARK   64  A    between atoms: _154  and  _155
REMARK   65  A    between atoms: _154  and  _157
REMARK   66  A    between atoms: _157  and  _158
REMARK   67  A    between atoms: _161  and  _163
REMARK   68  A    between atoms: _163  and  _164
REMARK   69  A    between atoms: _163  and  _166
REMARK   70  A    between atoms: _166  and  _167
REMARK   71  A    between atoms: _167  and  _168
REMARK   72  A    between atoms: _173  and  _175
REMARK   73  A    between atoms: _175  and  _176
REMARK   74  A    between atoms: _175  and  _178
REMARK   75  A    between atoms: _178  and  _179
REMARK   76  A    between atoms: _179  and  _180
REMARK   77  A    between atoms: _183  and  _185
REMARK   78  A    between atoms: _185  and  _186
REMARK   79  A    between atoms: _189  and  _191
REMARK   80  A    between atoms: _191  and  _192
REMARK   81  A    between atoms: _191  and  _194
REMARK   82  A    between atoms: _194  and  _195
REMARK   83  A    between atoms: _198  and  _200
REMARK   84  A    between atoms: _200  and  _201
REMARK   85  A    between atoms: _200  and  _203
REMARK   86  A    between atoms: _203  and  _204
REMARK   87  A    between atoms: _207  and  _209
REMARK   88  A    between atoms: _209  and  _210
REMARK   89  A    between atoms: _209  and  _212
REMARK   90  A    between atoms: _212  and  _213
REMARK   91  A    between atoms: _213  and  _214
REMARK   92  A    between atoms: _216  and  _218
REMARK   93  A    between atoms: _218  and  _219
REMARK   94  A    between atoms: _218  and  _221
REMARK   95  A    between atoms: _221  and  _222
REMARK   96  A    between atoms: _222  and  _223
REMARK   97  A    between atoms: _223  and  _224
REMARK   98  A    between atoms: _233  and  _235
REMARK   99  A    between atoms: _235  and  _236
REMARK  100  A    between atoms: _235  and  _238
REMARK  101  A    between atoms: _238  and  _239
REMARK  102  A    between atoms: _239  and  _240
REMARK  103  A    between atoms: _245  and  _247
REMARK  104  A    between atoms: _247  and  _248
REMARK  105  A    between atoms: _247  and  _250
REMARK  106  A    between atoms: _250  and  _251
REMARK  107  A    between atoms: _257  and  _259
REMARK  108  A    between atoms: _259  and  _260
REMARK  109  A    between atoms: _259  and  _262
REMARK  110  A    between atoms: _262  and  _263
REMARK  111  A    between atoms: _266  and  _268
REMARK  112  A    between atoms: _268  and  _269
REMARK  113  A    between atoms: _268  and  _271
REMARK  114  A    between atoms: _271  and  _272
REMARK  115  A    between atoms: _277  and  _279
REMARK  116  A    between atoms: _279  and  _280
REMARK  117  A    between atoms: _279  and  _282
REMARK  118  A    between atoms: _282  and  _283
REMARK  119  A    between atoms: _286  and  _288
REMARK  120  A    between atoms: _288  and  _289
REMARK  121  A    between atoms: _288  and  _291
REMARK  122  A    between atoms: _294  and  _296
REMARK  123  A    between atoms: _296  and  _297
REMARK  124  A    between atoms: _296  and  _299
REMARK  125  A    between atoms: _299  and  _300
REMARK  126  A    between atoms: _300  and  _301
REMARK  127  A    between atoms: _301  and  _302
REMARK  128  A    between atoms: _302  and  _303
REMARK  129  A    between atoms: _307  and  _309
REMARK  130  A    between atoms: _309  and  _310
REMARK  131  A    between atoms: _309  and  _312
REMARK  132  A    between atoms: _312  and  _313
REMARK  133  A    between atoms: _316  and  _318
REMARK  134  A    between atoms: _318  and  _319
REMARK  135  A    between atoms: _318  and  _321
REMARK  136  A    between atoms: _321  and  _322
REMARK  137  A    between atoms: _325  and  _327
REMARK  138  A    between atoms: _327  and  _328
REMARK  139  A    between atoms: _327  and  _330
REMARK  140  A    between atoms: _330  and  _331
REMARK  141  A    between atoms: _334  and  _336
REMARK  142  A    between atoms: _336  and  _337
REMARK  143  A    between atoms: _336  and  _339
REMARK  144  A    between atoms: _339  and  _340
REMARK  145  A    between atoms: _340  and  _341
REMARK  146  A    between atoms: _343  and  _345
REMARK  147  A    between atoms: _345  and  _346
REMARK  148  A    between atoms: _345  and  _348
REMARK  149  A    between atoms: _348  and  _349
REMARK  150  A    between atoms: _349  and  _350
REMARK  151  A    between atoms: _353  and  _355
REMARK  152  A    between atoms: _355  and  _356
REMARK  153  A    between atoms: _355  and  _358
REMARK  154  A    between atoms: _358  and  _359
REMARK  155  A    between atoms: _362  and  _364
REMARK  156  A    between atoms: _364  and  _365
REMARK  157  A    between atoms: _364  and  _367
REMARK  158  A    between atoms: _369  and  _371
REMARK  159  A    between atoms: _371  and  _372
REMARK  160  A    between atoms: _371  and  _374
REMARK  161  A    between atoms: _374  and  _375
REMARK  162  A    between atoms: _378  and  _380
REMARK  163  A    between atoms: _380  and  _381
REMARK  164  A    between atoms: _380  and  _383
REMARK  165  A    between atoms: _383  and  _384
REMARK  166  A    between atoms: _387  and  _389
REMARK  167  A    between atoms: _389  and  _390
REMARK  168  A    between atoms: _392  and  _394
REMARK  169  A    between atoms: _394  and  _395
REMARK  170  A    between atoms: _394  and  _397
REMARK  171  A    between atoms: _397  and  _398
REMARK  172  A    between atoms: _398  and  _399
REMARK  173  A    between atoms: _402  and  _404
REMARK  174  A    between atoms: _404  and  _405
REMARK  175  A    between atoms: _408  and  _410
REMARK  176  A    between atoms: _410  and  _411
REMARK  177  A    between atoms: _410  and  _413
REMARK  178  A    between atoms: _413  and  _414
REMARK  179  A    between atoms: _417  and  _419
REMARK  180  A    between atoms: _419  and  _420
REMARK  181  A    between atoms: _419  and  _422
REMARK  182  A    between atoms: _422  and  _423
REMARK  183  A    between atoms: _428  and  _429
REMARK  184  A    between atoms: _431  and  _433
REMARK  185  A    between atoms: _433  and  _434
REMARK  186  A    between atoms: _433  and  _436
REMARK  187  A    between atoms: _436  and  _437
REMARK  188  A    between atoms: _440  and  _442
REMARK  189  A    between atoms: _442  and  _443
REMARK  190  A    between atoms: _442  and  _445
REMARK  191  A    between atoms: _445  and  _446
REMARK  192  A    between atoms: _452  and  _454
REMARK  193  A    between atoms: _454  and  _455
REMARK  194  A    between atoms: _454  and  _457
REMARK  195  A    between atoms: _460  and  _462
REMARK  196  A    between atoms: _462  and  _463
REMARK  197  A    between atoms: _462  and  _465
REMARK  198  A    between atoms: _465  and  _466
REMARK  199  A    between atoms: _471  and  _473
REMARK  200  A    between atoms: _473  and  _474
REMARK  201  A    between atoms: _473  and  _476
REMARK  202  A    between atoms: _476  and  _477
REMARK  203  A    between atoms: _477  and  _478
REMARK  204  A    between atoms: _478  and  _479
REMARK  205  A    between atoms: _488  and  _490
REMARK  206  A    between atoms: _490  and  _491
REMARK  207  A    between atoms: _490  and  _493
REMARK  208  A    between atoms: _493  and  _494
REMARK  209  A    between atoms: _497  and  _499
REMARK  210  A    between atoms: _499  and  _500
REMARK  211  A    between atoms: _499  and  _502
REMARK  212  A    between atoms: _502  and  _503
REMARK  213  A    between atoms: _506  and  _508
REMARK  214  A    between atoms: _508  and  _509
REMARK  215  A    between atoms: _508  and  _511
REMARK  216  A    between atoms: _511  and  _512
REMARK  217  A    between atoms: _517  and  _519
REMARK  218  A    between atoms: _519  and  _520
REMARK  219  A    between atoms: _519  and  _522
REMARK  220  A    between atoms: _525  and  _527
REMARK  221  A    between atoms: _527  and  _528
REMARK  222  A    between atoms: _527  and  _530
REMARK  223  A    between atoms: _530  and  _531
REMARK  224  A    between atoms: _534  and  _536
REMARK  225  A    between atoms: _536  and  _537
REMARK  226  A    between atoms: _536  and  _539
REMARK  227  A    between atoms: _542  and  _544
REMARK  228  A    between atoms: _544  and  _545
REMARK  229  A    between atoms: _544  and  _547
REMARK  230  A    between atoms: _547  and  _548
REMARK  231  A    between atoms: _550  and  _552
REMARK  232  A    between atoms: _552  and  _553
REMARK  233  A    between atoms: _552  and  _555
REMARK  234  A    between atoms: _555  and  _556
REMARK  235  A    between atoms: _556  and  _557
REMARK  236  A    between atoms: _557  and  _558
REMARK  237  A    between atoms: _558  and  _559
REMARK  238  A    between atoms: _563  and  _565
REMARK  239  A    between atoms: _565  and  _566
REMARK  240  A    between atoms: _565  and  _568
REMARK  241  A    between atoms: _568  and  _569
REMARK  242  A    between atoms: _572  and  _574
REMARK  243  A    between atoms: _574  and  _575
REMARK  244  A    between atoms: _577  and  _579
REMARK  245  A    between atoms: _579  and  _580
REMARK  246  A    between atoms: _579  and  _582
REMARK  247  A    between atoms: _582  and  _583
REMARK  248  A    between atoms: _586  and  _588
REMARK  249  A    between atoms: _588  and  _589
REMARK  250  A    between atoms: _588  and  _591
REMARK  251  A    between atoms: _591  and  _592
REMARK  252  A    between atoms: _598  and  _600
REMARK  253  A    between atoms: _600  and  _601
REMARK  254  A    between atoms: _603  and  _605
REMARK  255  A    between atoms: _605  and  _606
REMARK  256  A    between atoms: _605  and  _608
REMARK  257  A    between atoms: _608  and  _609
REMARK  258  A    between atoms: _612  and  _614
REMARK  259  A    between atoms: _614  and  _615
REMARK  260  A    between atoms: _614  and  _617
REMARK  261  A    between atoms: _617  and  _618
REMARK  262  A    between atoms: _620  and  _622
REMARK  263  A    between atoms: _622  and  _623
REMARK  264  A    between atoms: _622  and  _625
REMARK  265  A    between atoms: _625  and  _626
REMARK  266  A    between atoms: _626  and  _627
REMARK  267  A    between atoms: _627  and  _628
REMARK  268  A    between atoms: _637  and  _639
REMARK  269  A    between atoms: _639  and  _640
REMARK  270  A    between atoms: _639  and  _642
REMARK  271  A    between atoms: _642  and  _643
REMARK  272  A    between atoms: _648  and  _649
REMARK  273  A    between atoms: _651  and  _653
REMARK  274  A    between atoms: _653  and  _654
REMARK  275  A    between atoms: _653  and  _656
REMARK  276  A    between atoms: _656  and  _657
REMARK  277  A    between atoms: _657  and  _658
REMARK  278  A    between atoms: _660  and  _662
REMARK  279  A    between atoms: _662  and  _663
REMARK  280  A    between atoms: _662  and  _665
REMARK  281  A    between atoms: _665  and  _666
REMARK                            x       y       z     vdW  Elec       q    Type
REMARK                         _______ _______ _______ _____ _____    ______ ____
ROOT
ATOM      1  O   HOH     1     -20.838 -33.149  -3.902  0.00  0.00    +0.000 OA
ENDROOT
TORSDOF 0
REMARK  Name = ../refined-set-2016/4k9y/4k9y_pocket.pdb
REMARK  281 active torsions:
REMARK  status: ('A' for Active; 'I' for Inactive)
REMARK    1  A    between atoms: _1  and  _3
REMARK    2  A    between atoms: _3  and  _4
REMARK    3  A    between atoms: _3  and  _6
REMARK    4  A    between atoms: _6  and  _7
REMARK    5  A    between atoms: _7  and  _8
REMARK    6  A    between atoms: _8  and  _9
REMARK    7  A    between atoms: _18  and  _20
REMARK    8  A    between atoms: _20  and  _21
REMARK    9  A    between atoms: _20  and  _23
REMARK   10  A    between atoms: _23  and  _24
REMARK   11  A    between atoms: _27  and  _29
REMARK   12  A    between atoms: _29  and  _30
REMARK   13  A    between atoms: _32  and  _34
REMARK   14  A    between atoms: _34  and  _35
REMARK   15  A    between atoms: _34  and  _37
REMARK   16  A    between atoms: _37  and  _38
REMARK   17  A    between atoms: _38  and  _39
REMARK   18  A    between atoms: _42  and  _44
REMARK   19  A    between atoms: _44  and  _45
REMARK   20  A    between atoms: _44  and  _47
REMARK   21  A    between atoms: _47  and  _48
REMARK   22  A    between atoms: _54  and  _56
REMARK   23  A    between atoms: _56  and  _57
REMARK   24  A    between atoms: _56  and  _59
REMARK   25  A    between atoms: _62  and  _64
REMARK   26  A    between atoms: _64  and  _65
REMARK   27  A    between atoms: _64  and  _67
REMARK   28  A    between atoms: _67  and  _68
REMARK   29  A    between atoms: _73  and  _75
REMARK   30  A    between atoms: _75  and  _76
REMARK   31  A    between atoms: _75  and  _78
REMARK   32  A    between atoms: _78  and  _79
REMARK   33  A    between atoms: _79  and  _80
REMARK   34  A    between atoms: _85  and  _87
REMARK   35  A    between atoms: _87  and  _88
REMARK   36  A    between atoms: _91  and  _93
REMARK   37  A    between atoms: _93  and  _94
REMARK   38  A    between atoms: _93  and  _96
REMARK   39  A    between atoms: _99  and  _101
REMARK   40  A    between atoms: _101  and  _102
REMARK   41  A    between atoms: _105  and  _107
REMARK   42  A    between atoms: _107  and  _108
REMARK   43  A    between atoms: _107  and  _110
REMARK   44  A    between atoms: _110  and  _111
REMARK   45  A    between atoms: _114  and  _116
REMARK   46  A    between atoms: _116  and  _117
REMARK   47  A    between atoms: _116  and  _119
REMARK   48  A    between atoms: _119  and  _120
REMARK   49  A    between atoms: _120  and  _121
REMARK   50  A    between atoms: _121  and  _122
REMARK   51  A    between atoms: _122  and  _123
REMARK   52  A    between atoms: _127  and  _129
REMARK   53  A    between atoms: _129  and  _130
REMARK   54  A    between atoms: _129  and  _132
REMARK   55  A    between atoms: _132  and  _133
REMARK   56  A    between atoms: _133  and  _134
REMARK   57  A    between atoms: _134  and  _135
REMARK   58  A    between atoms: _135  and  _136
REMARK   59  A    between atoms: _140  and  _142
REMARK   60  A    between atoms: _142  and  _143
REMARK   61  A    between atoms: _142  and  _145
REMARK   62  A    between atoms: _145  and  _146
REMARK   63  A    between atoms: _152  and  _154
REMARK   64  A    between atoms: _154  and  _155
REMARK   65  A    between atoms: _154  and  _157
REMARK   66  A    between atoms: _157  and  _158
REMARK   67  A    between atoms: _161  and  _163
REMARK   68  A    between atoms: _163  and  _164
REMARK   69  A    between atoms: _163  and  _166
REMARK   70  A    between atoms: _166  and  _167
REMARK   71  A    between atoms: _167  and  _168
REMARK   72  A    between atoms: _173  and  _175
REMARK   73  A    between atoms: _175  and  _176
REMARK   74  A    between atoms: _175  and  _178
REMARK   75  A    between atoms: _178  and  _179
REMARK   76  A    between atoms: _179  and  _180
REMARK   77  A    between atoms: _183  and  _185
REMARK   78  A    between atoms: _185  and  _186
REMARK   79  A    between atoms: _189  and  _191
REMARK   80  A    between atoms: _191  and  _192
REMARK   81  A    between atoms: _191  and  _194
REMARK   82  A    between atoms: _194  and  _195
REMARK   83  A    between atoms: _198  and  _200
REMARK   84  A    between atoms: _200  and  _201
REMARK   85  A    between atoms: _200  and  _203
REMARK   86  A    between atoms: _203  and  _204
REMARK   87  A    between atoms: _207  and  _209
REMARK   88  A    between atoms: _209  and  _210
REMARK   89  A    between atoms: _209  and  _212
REMARK   90  A    between atoms: _212  and  _213
REMARK   91  A    between atoms: _213  and  _214
REMARK   92  A    between atoms: _216  and  _218
REMARK   93  A    between atoms: _218  and  _219
REMARK   94  A    between atoms: _218  and  _221
REMARK   95  A    between atoms: _221  and  _222
REMARK   96  A    between atoms: _222  and  _223
REMARK   97  A    between atoms: _223  and  _224
REMARK   98  A    between atoms: _233  and  _235
REMARK   99  A    between atoms: _235  and  _236
REMARK  100  A    between atoms: _235  and  _238
REMARK  101  A    between atoms: _238  and  _239
REMARK  102  A    between atoms: _239  and  _240
REMARK  103  A    between atoms: _245  and  _247
REMARK  104  A    between atoms: _247  and  _248
REMARK  105  A    between atoms: _247  and  _250
REMARK  106  A    between atoms: _250  and  _251
REMARK  107  A    between atoms: _257  and  _259
REMARK  108  A    between atoms: _259  and  _260
REMARK  109  A    between atoms: _259  and  _262
REMARK  110  A    between atoms: _262  and  _263
REMARK  111  A    between atoms: _266  and  _268
REMARK  112  A    between atoms: _268  and  _269
REMARK  113  A    between atoms: _268  and  _271
REMARK  114  A    between atoms: _271  and  _272
REMARK  115  A    between atoms: _277  and  _279
REMARK  116  A    between atoms: _279  and  _280
REMARK  117  A    between atoms: _279  and  _282
REMARK  118  A    between atoms: _282  and  _283
REMARK  119  A    between atoms: _286  and  _288
REMARK  120  A    between atoms: _288  and  _289
REMARK  121  A    between atoms: _288  and  _291
REMARK  122  A    between atoms: _294  and  _296
REMARK  123  A    between atoms: _296  and  _297
REMARK  124  A    between atoms: _296  and  _299
REMARK  125  A    between atoms: _299  and  _300
REMARK  126  A    between atoms: _300  and  _301
REMARK  127  A    between atoms: _301  and  _302
REMARK  128  A    between atoms: _302  and  _303
REMARK  129  A    between atoms: _307  and  _309
REMARK  130  A    between atoms: _309  and  _310
REMARK  131  A    between atoms: _309  and  _312
REMARK  132  A    between atoms: _312  and  _313
REMARK  133  A    between atoms: _316  and  _318
REMARK  134  A    between atoms: _318  and  _319
REMARK  135  A    between atoms: _318  and  _321
REMARK  136  A    between atoms: _321  and  _322
REMARK  137  A    between atoms: _325  and  _327
REMARK  138  A    between atoms: _327  and  _328
REMARK  139  A    between atoms: _327  and  _330
REMARK  140  A    between atoms: _330  and  _331
REMARK  141  A    between atoms: _334  and  _336
REMARK  142  A    between atoms: _336  and  _337
REMARK  143  A    between atoms: _336  and  _339
REMARK  144  A    between atoms: _339  and  _340
REMARK  145  A    between atoms: _340  and  _341
REMARK  146  A    between atoms: _343  and  _345
REMARK  147  A    between atoms: _345  and  _346
REMARK  148  A    between atoms: _345  and  _348
REMARK  149  A    between atoms: _348  and  _349
REMARK  150  A    between atoms: _349  and  _350
REMARK  151  A    between atoms: _353  and  _355
REMARK  152  A    between atoms: _355  and  _356
REMARK  153  A    between atoms: _355  and  _358
REMARK  154  A    between atoms: _358  and  _359
REMARK  155  A    between atoms: _362  and  _364
REMARK  156  A    between atoms: _364  and  _365
REMARK  157  A    between atoms: _364  and  _367
REMARK  158  A    between atoms: _369  and  _371
REMARK  159  A    between atoms: _371  and  _372
REMARK  160  A    between atoms: _371  and  _374
REMARK  161  A    between atoms: _374  and  _375
REMARK  162  A    between atoms: _378  and  _380
REMARK  163  A    between atoms: _380  and  _381
REMARK  164  A    between atoms: _380  and  _383
REMARK  165  A    between atoms: _383  and  _384
REMARK  166  A    between atoms: _387  and  _389
REMARK  167  A    between atoms: _389  and  _390
REMARK  168  A    between atoms: _392  and  _394
REMARK  169  A    between atoms: _394  and  _395
REMARK  170  A    between atoms: _394  and  _397
REMARK  171  A    between atoms: _397  and  _398
REMARK  172  A    between atoms: _398  and  _399
REMARK  173  A    between atoms: _402  and  _404
REMARK  174  A    between atoms: _404  and  _405
REMARK  175  A    between atoms: _408  and  _410
REMARK  176  A    between atoms: _410  and  _411
REMARK  177  A    between atoms: _410  and  _413
REMARK  178  A    between atoms: _413  and  _414
REMARK  179  A    between atoms: _417  and  _419
REMARK  180  A    between atoms: _419  and  _420
REMARK  181  A    between atoms: _419  and  _422
REMARK  182  A    between atoms: _422  and  _423
REMARK  183  A    between atoms: _428  and  _429
REMARK  184  A    between atoms: _431  and  _433
REMARK  185  A    between atoms: _433  and  _434
REMARK  186  A    between atoms: _433  and  _436
REMARK  187  A    between atoms: _436  and  _437
REMARK  188  A    between atoms: _440  and  _442
REMARK  189  A    between atoms: _442  and  _443
REMARK  190  A    between atoms: _442  and  _445
REMARK  191  A    between atoms: _445  and  _446
REMARK  192  A    between atoms: _452  and  _454
REMARK  193  A    between atoms: _454  and  _455
REMARK  194  A    between atoms: _454  and  _457
REMARK  195  A    between atoms: _460  and  _462
REMARK  196  A    between atoms: _462  and  _463
REMARK  197  A    between atoms: _462  and  _465
REMARK  198  A    between atoms: _465  and  _466
REMARK  199  A    between atoms: _471  and  _473
REMARK  200  A    between atoms: _473  and  _474
REMARK  201  A    between atoms: _473  and  _476
REMARK  202  A    between atoms: _476  and  _477
REMARK  203  A    between atoms: _477  and  _478
REMARK  204  A    between atoms: _478  and  _479
REMARK  205  A    between atoms: _488  and  _490
REMARK  206  A    between atoms: _490  and  _491
REMARK  207  A    between atoms: _490  and  _493
REMARK  208  A    between atoms: _493  and  _494
REMARK  209  A    between atoms: _497  and  _499
REMARK  210  A    between atoms: _499  and  _500
REMARK  211  A    between atoms: _499  and  _502
REMARK  212  A    between atoms: _502  and  _503
REMARK  213  A    between atoms: _506  and  _508
REMARK  214  A    between atoms: _508  and  _509
REMARK  215  A    between atoms: _508  and  _511
REMARK  216  A    between atoms: _511  and  _512
REMARK  217  A    between atoms: _517  and  _519
REMARK  218  A    between atoms: _519  and  _520
REMARK  219  A    between atoms: _519  and  _522
REMARK  220  A    between atoms: _525  and  _527
REMARK  221  A    between atoms: _527  and  _528
REMARK  222  A    between atoms: _527  and  _530
REMARK  223  A    between atoms: _530  and  _531
REMARK  224  A    between atoms: _534  and  _536
REMARK  225  A    between atoms: _536  and  _537
REMARK  226  A    between atoms: _536  and  _539
REMARK  227  A    between atoms: _542  and  _544
REMARK  228  A    between atoms: _544  and  _545
REMARK  229  A    between atoms: _544  and  _547
REMARK  230  A    between atoms: _547  and  _548
REMARK  231  A    between atoms: _550  and  _552
REMARK  232  A    between atoms: _552  and  _553
REMARK  233  A    between atoms: _552  and  _555
REMARK  234  A    between atoms: _555  and  _556
REMARK  235  A    between atoms: _556  and  _557
REMARK  236  A    between atoms: _557  and  _558
REMARK  237  A    between atoms: _558  and  _559
REMARK  238  A    between atoms: _563  and  _565
REMARK  239  A    between atoms: _565  and  _566
REMARK  240  A    between atoms: _565  and  _568
REMARK  241  A    between atoms: _568  and  _569
REMARK  242  A    between atoms: _572  and  _574
REMARK  243  A    between atoms: _574  and  _575
REMARK  244  A    between atoms: _577  and  _579
REMARK  245  A    between atoms: _579  and  _580
REMARK  246  A    between atoms: _579  and  _582
REMARK  247  A    between atoms: _582  and  _583
REMARK  248  A    between atoms: _586  and  _588
REMARK  249  A    between atoms: _588  and  _589
REMARK  250  A    between atoms: _588  and  _591
REMARK  251  A    between atoms: _591  and  _592
REMARK  252  A    between atoms: _598  and  _600
REMARK  253  A    between atoms: _600  and  _601
REMARK  254  A    between atoms: _603  and  _605
REMARK  255  A    between atoms: _605  and  _606
REMARK  256  A    between atoms: _605  and  _608
REMARK  257  A    between atoms: _608  and  _609
REMARK  258  A    between atoms: _612  and  _614
REMARK  259  A    between atoms: _614  and  _615
REMARK  260  A    between atoms: _614  and  _617
REMARK  261  A    between atoms: _617  and  _618
REMARK  262  A    between atoms: _620  and  _622
REMARK  263  A    between atoms: _622  and  _623
REMARK  264  A    between atoms: _622  and  _625
REMARK  265  A    between atoms: _625  and  _626
REMARK  266  A    between atoms: _626  and  _627
REMARK  267  A    between atoms: _627  and  _628
REMARK  268  A    between atoms: _637  and  _639
REMARK  269  A    between atoms: _639  and  _640
REMARK  270  A    between atoms: _639  and  _642
REMARK  271  A    between atoms: _642  and  _643
REMARK  272  A    between atoms: _648  and  _649
REMARK  273  A    between atoms: _651  and  _653
REMARK  274  A    between atoms: _653  and  _654
REMARK  275  A    between atoms: _653  and  _656
REMARK  276  A    between atoms: _656  and  _657
REMARK  277  A    between atoms: _657  and  _658
REMARK  278  A    between atoms: _660  and  _662
REMARK  279  A    between atoms: _662  and  _663
REMARK  280  A    between atoms: _662  and  _665
REMARK  281  A    between atoms: _665  and  _666
REMARK                            x       y       z     vdW  Elec       q    Type
REMARK                         _______ _______ _______ _____ _____    ______ ____
ROOT
ATOM      1  O   HOH     1     -28.669 -27.920   7.522  0.00  0.00    +0.000 OA
ENDROOT
TORSDOF 0
REMARK  Name = ../refined-set-2016/4k9y/4k9y_pocket.pdb
REMARK  281 active torsions:
REMARK  status: ('A' for Active; 'I' for Inactive)
REMARK    1  A    between atoms: _1  and  _3
REMARK    2  A    between atoms: _3  and  _4
REMARK    3  A    between atoms: _3  and  _6
REMARK    4  A    between atoms: _6  and  _7
REMARK    5  A    between atoms: _7  and  _8
REMARK    6  A    between atoms: _8  and  _9
REMARK    7  A    between atoms: _18  and  _20
REMARK    8  A    between atoms: _20  and  _21
REMARK    9  A    between atoms: _20  and  _23
REMARK   10  A    between atoms: _23  and  _24
REMARK   11  A    between atoms: _27  and  _29
REMARK   12  A    between atoms: _29  and  _30
REMARK   13  A    between atoms: _32  and  _34
REMARK   14  A    between atoms: _34  and  _35
REMARK   15  A    between atoms: _34  and  _37
REMARK   16  A    between atoms: _37  and  _38
REMARK   17  A    between atoms: _38  and  _39
REMARK   18  A    between atoms: _42  and  _44
REMARK   19  A    between atoms: _44  and  _45
REMARK   20  A    between atoms: _44  and  _47
REMARK   21  A    between atoms: _47  and  _48
REMARK   22  A    between atoms: _54  and  _56
REMARK   23  A    between atoms: _56  and  _57
REMARK   24  A    between atoms: _56  and  _59
REMARK   25  A    between atoms: _62  and  _64
REMARK   26  A    between atoms: _64  and  _65
REMARK   27  A    between atoms: _64  and  _67
REMARK   28  A    between atoms: _67  and  _68
REMARK   29  A    between atoms: _73  and  _75
REMARK   30  A    between atoms: _75  and  _76
REMARK   31  A    between atoms: _75  and  _78
REMARK   32  A    between atoms: _78  and  _79
REMARK   33  A    between atoms: _79  and  _80
REMARK   34  A    between atoms: _85  and  _87
REMARK   35  A    between atoms: _87  and  _88
REMARK   36  A    between atoms: _91  and  _93
REMARK   37  A    between atoms: _93  and  _94
REMARK   38  A    between atoms: _93  and  _96
REMARK   39  A    between atoms: _99  and  _101
REMARK   40  A    between atoms: _101  and  _102
REMARK   41  A    between atoms: _105  and  _107
REMARK   42  A    between atoms: _107  and  _108
REMARK   43  A    between atoms: _107  and  _110
REMARK   44  A    between atoms: _110  and  _111
REMARK   45  A    between atoms: _114  and  _116
REMARK   46  A    between atoms: _116  and  _117
REMARK   47  A    between atoms: _116  and  _119
REMARK   48  A    between atoms: _119  and  _120
REMARK   49  A    between atoms: _120  and  _121
REMARK   50  A    between atoms: _121  and  _122
REMARK   51  A    between atoms: _122  and  _123
REMARK   52  A    between atoms: _127  and  _129
REMARK   53  A    between atoms: _129  and  _130
REMARK   54  A    between atoms: _129  and  _132
REMARK   55  A    between atoms: _132  and  _133
REMARK   56  A    between atoms: _133  and  _134
REMARK   57  A    between atoms: _134  and  _135
REMARK   58  A    between atoms: _135  and  _136
REMARK   59  A    between atoms: _140  and  _142
REMARK   60  A    between atoms: _142  and  _143
REMARK   61  A    between atoms: _142  and  _145
REMARK   62  A    between atoms: _145  and  _146
REMARK   63  A    between atoms: _152  and  _154
REMARK   64  A    between atoms: _154  and  _155
REMARK   65  A    between atoms: _154  and  _157
REMARK   66  A    between atoms: _157  and  _158
REMARK   67  A    between atoms: _161  and  _163
REMARK   68  A    between atoms: _163  and  _164
REMARK   69  A    between atoms: _163  and  _166
REMARK   70  A    between atoms: _166  and  _167
REMARK   71  A    between atoms: _167  and  _168
REMARK   72  A    between atoms: _173  and  _175
REMARK   73  A    between atoms: _175  and  _176
REMARK   74  A    between atoms: _175  and  _178
REMARK   75  A    between atoms: _178  and  _179
REMARK   76  A    between atoms: _179  and  _180
REMARK   77  A    between atoms: _183  and  _185
REMARK   78  A    between atoms: _185  and  _186
REMARK   79  A    between atoms: _189  and  _191
REMARK   80  A    between atoms: _191  and  _192
REMARK   81  A    between atoms: _191  and  _194
REMARK   82  A    between atoms: _194  and  _195
REMARK   83  A    between atoms: _198  and  _200
REMARK   84  A    between atoms: _200  and  _201
REMARK   85  A    between atoms: _200  and  _203
REMARK   86  A    between atoms: _203  and  _204
REMARK   87  A    between atoms: _207  and  _209
REMARK   88  A    between atoms: _209  and  _210
REMARK   89  A    between atoms: _209  and  _212
REMARK   90  A    between atoms: _212  and  _213
REMARK   91  A    between atoms: _213  and  _214
REMARK   92  A    between atoms: _216  and  _218
REMARK   93  A    between atoms: _218  and  _219
REMARK   94  A    between atoms: _218  and  _221
REMARK   95  A    between atoms: _221  and  _222
REMARK   96  A    between atoms: _222  and  _223
REMARK   97  A    between atoms: _223  and  _224
REMARK   98  A    between atoms: _233  and  _235
REMARK   99  A    between atoms: _235  and  _236
REMARK  100  A    between atoms: _235  and  _238
REMARK  101  A    between atoms: _238  and  _239
REMARK  102  A    between atoms: _239  and  _240
REMARK  103  A    between atoms: _245  and  _247
REMARK  104  A    between atoms: _247  and  _248
REMARK  105  A    between atoms: _247  and  _250
REMARK  106  A    between atoms: _250  and  _251
REMARK  107  A    between atoms: _257  and  _259
REMARK  108  A    between atoms: _259  and  _260
REMARK  109  A    between atoms: _259  and  _262
REMARK  110  A    between atoms: _262  and  _263
REMARK  111  A    between atoms: _266  and  _268
REMARK  112  A    between atoms: _268  and  _269
REMARK  113  A    between atoms: _268  and  _271
REMARK  114  A    between atoms: _271  and  _272
REMARK  115  A    between atoms: _277  and  _279
REMARK  116  A    between atoms: _279  and  _280
REMARK  117  A    between atoms: _279  and  _282
REMARK  118  A    between atoms: _282  and  _283
REMARK  119  A    between atoms: _286  and  _288
REMARK  120  A    between atoms: _288  and  _289
REMARK  121  A    between atoms: _288  and  _291
REMARK  122  A    between atoms: _294  and  _296
REMARK  123  A    between atoms: _296  and  _297
REMARK  124  A    between atoms: _296  and  _299
REMARK  125  A    between atoms: _299  and  _300
REMARK  126  A    between atoms: _300  and  _301
REMARK  127  A    between atoms: _301  and  _302
REMARK  128  A    between atoms: _302  and  _303
REMARK  129  A    between atoms: _307  and  _309
REMARK  130  A    between atoms: _309  and  _310
REMARK  131  A    between atoms: _309  and  _312
REMARK  132  A    between atoms: _312  and  _313
REMARK  133  A    between atoms: _316  and  _318
REMARK  134  A    between atoms: _318  and  _319
REMARK  135  A    between atoms: _318  and  _321
REMARK  136  A    between atoms: _321  and  _322
REMARK  137  A    between atoms: _325  and  _327
REMARK  138  A    between atoms: _327  and  _328
REMARK  139  A    between atoms: _327  and  _330
REMARK  140  A    between atoms: _330  and  _331
REMARK  141  A    between atoms: _334  and  _336
REMARK  142  A    between atoms: _336  and  _337
REMARK  143  A    between atoms: _336  and  _339
REMARK  144  A    between atoms: _339  and  _340
REMARK  145  A    between atoms: _340  and  _341
REMARK  146  A    between atoms: _343  and  _345
REMARK  147  A    between atoms: _345  and  _346
REMARK  148  A    between atoms: _345  and  _348
REMARK  149  A    between atoms: _348  and  _349
REMARK  150  A    between atoms: _349  and  _350
REMARK  151  A    between atoms: _353  and  _355
REMARK  152  A    between atoms: _355  and  _356
REMARK  153  A    between atoms: _355  and  _358
REMARK  154  A    between atoms: _358  and  _359
REMARK  155  A    between atoms: _362  and  _364
REMARK  156  A    between atoms: _364  and  _365
REMARK  157  A    between atoms: _364  and  _367
REMARK  158  A    between atoms: _369  and  _371
REMARK  159  A    between atoms: _371  and  _372
REMARK  160  A    between atoms: _371  and  _374
REMARK  161  A    between atoms: _374  and  _375
REMARK  162  A    between atoms: _378  and  _380
REMARK  163  A    between atoms: _380  and  _381
REMARK  164  A    between atoms: _380  and  _383
REMARK  165  A    between atoms: _383  and  _384
REMARK  166  A    between atoms: _387  and  _389
REMARK  167  A    between atoms: _389  and  _390
REMARK  168  A    between atoms: _392  and  _394
REMARK  169  A    between atoms: _394  and  _395
REMARK  170  A    between atoms: _394  and  _397
REMARK  171  A    between atoms: _397  and  _398
REMARK  172  A    between atoms: _398  and  _399
REMARK  173  A    between atoms: _402  and  _404
REMARK  174  A    between atoms: _404  and  _405
REMARK  175  A    between atoms: _408  and  _410
REMARK  176  A    between atoms: _410  and  _411
REMARK  177  A    between atoms: _410  and  _413
REMARK  178  A    between atoms: _413  and  _414
REMARK  179  A    between atoms: _417  and  _419
REMARK  180  A    between atoms: _419  and  _420
REMARK  181  A    between atoms: _419  and  _422
REMARK  182  A    between atoms: _422  and  _423
REMARK  183  A    between atoms: _428  and  _429
REMARK  184  A    between atoms: _431  and  _433
REMARK  185  A    between atoms: _433  and  _434
REMARK  186  A    between atoms: _433  and  _436
REMARK  187  A    between atoms: _436  and  _437
REMARK  188  A    between atoms: _440  and  _442
REMARK  189  A    between atoms: _442  and  _443
REMARK  190  A    between atoms: _442  and  _445
REMARK  191  A    between atoms: _445  and  _446
REMARK  192  A    between atoms: _452  and  _454
REMARK  193  A    between atoms: _454  and  _455
REMARK  194  A    between atoms: _454  and  _457
REMARK  195  A    between atoms: _460  and  _462
REMARK  196  A    between atoms: _462  and  _463
REMARK  197  A    between atoms: _462  and  _465
REMARK  198  A    between atoms: _465  and  _466
REMARK  199  A    between atoms: _471  and  _473
REMARK  200  A    between atoms: _473  and  _474
REMARK  201  A    between atoms: _473  and  _476
REMARK  202  A    between atoms: _476  and  _477
REMARK  203  A    between atoms: _477  and  _478
REMARK  204  A    between atoms: _478  and  _479
REMARK  205  A    between atoms: _488  and  _490
REMARK  206  A    between atoms: _490  and  _491
REMARK  207  A    between atoms: _490  and  _493
REMARK  208  A    between atoms: _493  and  _494
REMARK  209  A    between atoms: _497  and  _499
REMARK  210  A    between atoms: _499  and  _500
REMARK  211  A    between atoms: _499  and  _502
REMARK  212  A    between atoms: _502  and  _503
REMARK  213  A    between atoms: _506  and  _508
REMARK  214  A    between atoms: _508  and  _509
REMARK  215  A    between atoms: _508  and  _511
REMARK  216  A    between atoms: _511  and  _512
REMARK  217  A    between atoms: _517  and  _519
REMARK  218  A    between atoms: _519  and  _520
REMARK  219  A    between atoms: _519  and  _522
REMARK  220  A    between atoms: _525  and  _527
REMARK  221  A    between atoms: _527  and  _528
REMARK  222  A    between atoms: _527  and  _530
REMARK  223  A    between atoms: _530  and  _531
REMARK  224  A    between atoms: _534  and  _536
REMARK  225  A    between atoms: _536  and  _537
REMARK  226  A    between atoms: _536  and  _539
REMARK  227  A    between atoms: _542  and  _544
REMARK  228  A    between atoms: _544  and  _545
REMARK  229  A    between atoms: _544  and  _547
REMARK  230  A    between atoms: _547  and  _548
REMARK  231  A    between atoms: _550  and  _552
REMARK  232  A    between atoms: _552  and  _553
REMARK  233  A    between atoms: _552  and  _555
REMARK  234  A    between atoms: _555  and  _556
REMARK  235  A    between atoms: _556  and  _557
REMARK  236  A    between atoms: _557  and  _558
REMARK  237  A    between atoms: _558  and  _559
REMARK  238  A    between atoms: _563  and  _565
REMARK  239  A    between atoms: _565  and  _566
REMARK  240  A    between atoms: _565  and  _568
REMARK  241  A    between atoms: _568  and  _569
REMARK  242  A    between atoms: _572  and  _574
REMARK  243  A    between atoms: _574  and  _575
REMARK  244  A    between atoms: _577  and  _579
REMARK  245  A    between atoms: _579  and  _580
REMARK  246  A    between atoms: _579  and  _582
REMARK  247  A    between atoms: _582  and  _583
REMARK  248  A    between atoms: _586  and  _588
REMARK  249  A    between atoms: _588  and  _589
REMARK  250  A    between atoms: _588  and  _591
REMARK  251  A    between atoms: _591  and  _592
REMARK  252  A    between atoms: _598  and  _600
REMARK  253  A    between atoms: _600  and  _601
REMARK  254  A    between atoms: _603  and  _605
REMARK  255  A    between atoms: _605  and  _606
REMARK  256  A    between atoms: _605  and  _608
REMARK  257  A    between atoms: _608  and  _609
REMARK  258  A    between atoms: _612  and  _614
REMARK  259  A    between atoms: _614  and  _615
REMARK  260  A    between atoms: _614  and  _617
REMARK  261  A    between atoms: _617  and  _618
REMARK  262  A    between atoms: _620  and  _622
REMARK  263  A    between atoms: _622  and  _623
REMARK  264  A    between atoms: _622  and  _625
REMARK  265  A    between atoms: _625  and  _626
REMARK  266  A    between atoms: _626  and  _627
REMARK  267  A    between atoms: _627  and  _628
REMARK  268  A    between atoms: _637  and  _639
REMARK  269  A    between atoms: _639  and  _640
REMARK  270  A    between atoms: _639  and  _642
REMARK  271  A    between atoms: _642  and  _643
REMARK  272  A    between atoms: _648  and  _649
REMARK  273  A    between atoms: _651  and  _653
REMARK  274  A    between atoms: _653  and  _654
REMARK  275  A    between atoms: _653  and  _656
REMARK  276  A    between atoms: _656  and  _657
REMARK  277  A    between atoms: _657  and  _658
REMARK  278  A    between atoms: _660  and  _662
REMARK  279  A    between atoms: _662  and  _663
REMARK  280  A    between atoms: _662  and  _665
REMARK  281  A    between atoms: _665  and  _666
REMARK                            x       y       z     vdW  Elec       q    Type
REMARK                         _______ _______ _______ _____ _____    ______ ____
ROOT
ATOM      1  O   HOH     1     -26.155 -35.335  16.984  0.00  0.00    +0.000 OA
ENDROOT
TORSDOF 0
REMARK  Name = ../refined-set-2016/4k9y/4k9y_pocket.pdb
REMARK  281 active torsions:
REMARK  status: ('A' for Active; 'I' for Inactive)
REMARK    1  A    between atoms: _1  and  _3
REMARK    2  A    between atoms: _3  and  _4
REMARK    3  A    between atoms: _3  and  _6
REMARK    4  A    between atoms: _6  and  _7
REMARK    5  A    between atoms: _7  and  _8
REMARK    6  A    between atoms: _8  and  _9
REMARK    7  A    between atoms: _18  and  _20
REMARK    8  A    between atoms: _20  and  _21
REMARK    9  A    between atoms: _20  and  _23
REMARK   10  A    between atoms: _23  and  _24
REMARK   11  A    between atoms: _27  and  _29
REMARK   12  A    between atoms: _29  and  _30
REMARK   13  A    between atoms: _32  and  _34
REMARK   14  A    between atoms: _34  and  _35
REMARK   15  A    between atoms: _34  and  _37
REMARK   16  A    between atoms: _37  and  _38
REMARK   17  A    between atoms: _38  and  _39
REMARK   18  A    between atoms: _42  and  _44
REMARK   19  A    between atoms: _44  and  _45
REMARK   20  A    between atoms: _44  and  _47
REMARK   21  A    between atoms: _47  and  _48
REMARK   22  A    between atoms: _54  and  _56
REMARK   23  A    between atoms: _56  and  _57
REMARK   24  A    between atoms: _56  and  _59
REMARK   25  A    between atoms: _62  and  _64
REMARK   26  A    between atoms: _64  and  _65
REMARK   27  A    between atoms: _64  and  _67
REMARK   28  A    between atoms: _67  and  _68
REMARK   29  A    between atoms: _73  and  _75
REMARK   30  A    between atoms: _75  and  _76
REMARK   31  A    between atoms: _75  and  _78
REMARK   32  A    between atoms: _78  and  _79
REMARK   33  A    between atoms: _79  and  _80
REMARK   34  A    between atoms: _85  and  _87
REMARK   35  A    between atoms: _87  and  _88
REMARK   36  A    between atoms: _91  and  _93
REMARK   37  A    between atoms: _93  and  _94
REMARK   38  A    between atoms: _93  and  _96
REMARK   39  A    between atoms: _99  and  _101
REMARK   40  A    between atoms: _101  and  _102
REMARK   41  A    between atoms: _105  and  _107
REMARK   42  A    between atoms: _107  and  _108
REMARK   43  A    between atoms: _107  and  _110
REMARK   44  A    between atoms: _110  and  _111
REMARK   45  A    between atoms: _114  and  _116
REMARK   46  A    between atoms: _116  and  _117
REMARK   47  A    between atoms: _116  and  _119
REMARK   48  A    between atoms: _119  and  _120
REMARK   49  A    between atoms: _120  and  _121
REMARK   50  A    between atoms: _121  and  _122
REMARK   51  A    between atoms: _122  and  _123
REMARK   52  A    between atoms: _127  and  _129
REMARK   53  A    between atoms: _129  and  _130
REMARK   54  A    between atoms: _129  and  _132
REMARK   55  A    between atoms: _132  and  _133
REMARK   56  A    between atoms: _133  and  _134
REMARK   57  A    between atoms: _134  and  _135
REMARK   58  A    between atoms: _135  and  _136
REMARK   59  A    between atoms: _140  and  _142
REMARK   60  A    between atoms: _142  and  _143
REMARK   61  A    between atoms: _142  and  _145
REMARK   62  A    between atoms: _145  and  _146
REMARK   63  A    between atoms: _152  and  _154
REMARK   64  A    between atoms: _154  and  _155
REMARK   65  A    between atoms: _154  and  _157
REMARK   66  A    between atoms: _157  and  _158
REMARK   67  A    between atoms: _161  and  _163
REMARK   68  A    between atoms: _163  and  _164
REMARK   69  A    between atoms: _163  and  _166
REMARK   70  A    between atoms: _166  and  _167
REMARK   71  A    between atoms: _167  and  _168
REMARK   72  A    between atoms: _173  and  _175
REMARK   73  A    between atoms: _175  and  _176
REMARK   74  A    between atoms: _175  and  _178
REMARK   75  A    between atoms: _178  and  _179
REMARK   76  A    between atoms: _179  and  _180
REMARK   77  A    between atoms: _183  and  _185
REMARK   78  A    between atoms: _185  and  _186
REMARK   79  A    between atoms: _189  and  _191
REMARK   80  A    between atoms: _191  and  _192
REMARK   81  A    between atoms: _191  and  _194
REMARK   82  A    between atoms: _194  and  _195
REMARK   83  A    between atoms: _198  and  _200
REMARK   84  A    between atoms: _200  and  _201
REMARK   85  A    between atoms: _200  and  _203
REMARK   86  A    between atoms: _203  and  _204
REMARK   87  A    between atoms: _207  and  _209
REMARK   88  A    between atoms: _209  and  _210
REMARK   89  A    between atoms: _209  and  _212
REMARK   90  A    between atoms: _212  and  _213
REMARK   91  A    between atoms: _213  and  _214
REMARK   92  A    between atoms: _216  and  _218
REMARK   93  A    between atoms: _218  and  _219
REMARK   94  A    between atoms: _218  and  _221
REMARK   95  A    between atoms: _221  and  _222
REMARK   96  A    between atoms: _222  and  _223
REMARK   97  A    between atoms: _223  and  _224
REMARK   98  A    between atoms: _233  and  _235
REMARK   99  A    between atoms: _235  and  _236
REMARK  100  A    between atoms: _235  and  _238
REMARK  101  A    between atoms: _238  and  _239
REMARK  102  A    between atoms: _239  and  _240
REMARK  103  A    between atoms: _245  and  _247
REMARK  104  A    between atoms: _247  and  _248
REMARK  105  A    between atoms: _247  and  _250
REMARK  106  A    between atoms: _250  and  _251
REMARK  107  A    between atoms: _257  and  _259
REMARK  108  A    between atoms: _259  and  _260
REMARK  109  A    between atoms: _259  and  _262
REMARK  110  A    between atoms: _262  and  _263
REMARK  111  A    between atoms: _266  and  _268
REMARK  112  A    between atoms: _268  and  _269
REMARK  113  A    between atoms: _268  and  _271
REMARK  114  A    between atoms: _271  and  _272
REMARK  115  A    between atoms: _277  and  _279
REMARK  116  A    between atoms: _279  and  _280
REMARK  117  A    between atoms: _279  and  _282
REMARK  118  A    between atoms: _282  and  _283
REMARK  119  A    between atoms: _286  and  _288
REMARK  120  A    between atoms: _288  and  _289
REMARK  121  A    between atoms: _288  and  _291
REMARK  122  A    between atoms: _294  and  _296
REMARK  123  A    between atoms: _296  and  _297
REMARK  124  A    between atoms: _296  and  _299
REMARK  125  A    between atoms: _299  and  _300
REMARK  126  A    between atoms: _300  and  _301
REMARK  127  A    between atoms: _301  and  _302
REMARK  128  A    between atoms: _302  and  _303
REMARK  129  A    between atoms: _307  and  _309
REMARK  130  A    between atoms: _309  and  _310
REMARK  131  A    between atoms: _309  and  _312
REMARK  132  A    between atoms: _312  and  _313
REMARK  133  A    between atoms: _316  and  _318
REMARK  134  A    between atoms: _318  and  _319
REMARK  135  A    between atoms: _318  and  _321
REMARK  136  A    between atoms: _321  and  _322
REMARK  137  A    between atoms: _325  and  _327
REMARK  138  A    between atoms: _327  and  _328
REMARK  139  A    between atoms: _327  and  _330
REMARK  140  A    between atoms: _330  and  _331
REMARK  141  A    between atoms: _334  and  _336
REMARK  142  A    between atoms: _336  and  _337
REMARK  143  A    between atoms: _336  and  _339
REMARK  144  A    between atoms: _339  and  _340
REMARK  145  A    between atoms: _340  and  _341
REMARK  146  A    between atoms: _343  and  _345
REMARK  147  A    between atoms: _345  and  _346
REMARK  148  A    between atoms: _345  and  _348
REMARK  149  A    between atoms: _348  and  _349
REMARK  150  A    between atoms: _349  and  _350
REMARK  151  A    between atoms: _353  and  _355
REMARK  152  A    between atoms: _355  and  _356
REMARK  153  A    between atoms: _355  and  _358
REMARK  154  A    between atoms: _358  and  _359
REMARK  155  A    between atoms: _362  and  _364
REMARK  156  A    between atoms: _364  and  _365
REMARK  157  A    between atoms: _364  and  _367
REMARK  158  A    between atoms: _369  and  _371
REMARK  159  A    between atoms: _371  and  _372
REMARK  160  A    between atoms: _371  and  _374
REMARK  161  A    between atoms: _374  and  _375
REMARK  162  A    between atoms: _378  and  _380
REMARK  163  A    between atoms: _380  and  _381
REMARK  164  A    between atoms: _380  and  _383
REMARK  165  A    between atoms: _383  and  _384
REMARK  166  A    between atoms: _387  and  _389
REMARK  167  A    between atoms: _389  and  _390
REMARK  168  A    between atoms: _392  and  _394
REMARK  169  A    between atoms: _394  and  _395
REMARK  170  A    between atoms: _394  and  _397
REMARK  171  A    between atoms: _397  and  _398
REMARK  172  A    between atoms: _398  and  _399
REMARK  173  A    between atoms: _402  and  _404
REMARK  174  A    between atoms: _404  and  _405
REMARK  175  A    between atoms: _408  and  _410
REMARK  176  A    between atoms: _410  and  _411
REMARK  177  A    between atoms: _410  and  _413
REMARK  178  A    between atoms: _413  and  _414
REMARK  179  A    between atoms: _417  and  _419
REMARK  180  A    between atoms: _419  and  _420
REMARK  181  A    between atoms: _419  and  _422
REMARK  182  A    between atoms: _422  and  _423
REMARK  183  A    between atoms: _428  and  _429
REMARK  184  A    between atoms: _431  and  _433
REMARK  185  A    between atoms: _433  and  _434
REMARK  186  A    between atoms: _433  and  _436
REMARK  187  A    between atoms: _436  and  _437
REMARK  188  A    between atoms: _440  and  _442
REMARK  189  A    between atoms: _442  and  _443
REMARK  190  A    between atoms: _442  and  _445
REMARK  191  A    between atoms: _445  and  _446
REMARK  192  A    between atoms: _452  and  _454
REMARK  193  A    between atoms: _454  and  _455
REMARK  194  A    between atoms: _454  and  _457
REMARK  195  A    between atoms: _460  and  _462
REMARK  196  A    between atoms: _462  and  _463
REMARK  197  A    between atoms: _462  and  _465
REMARK  198  A    between atoms: _465  and  _466
REMARK  199  A    between atoms: _471  and  _473
REMARK  200  A    between atoms: _473  and  _474
REMARK  201  A    between atoms: _473  and  _476
REMARK  202  A    between atoms: _476  and  _477
REMARK  203  A    between atoms: _477  and  _478
REMARK  204  A    between atoms: _478  and  _479
REMARK  205  A    between atoms: _488  and  _490
REMARK  206  A    between atoms: _490  and  _491
REMARK  207  A    between atoms: _490  and  _493
REMARK  208  A    between atoms: _493  and  _494
REMARK  209  A    between atoms: _497  and  _499
REMARK  210  A    between atoms: _499  and  _500
REMARK  211  A    between atoms: _499  and  _502
REMARK  212  A    between atoms: _502  and  _503
REMARK  213  A    between atoms: _506  and  _508
REMARK  214  A    between atoms: _508  and  _509
REMARK  215  A    between atoms: _508  and  _511
REMARK  216  A    between atoms: _511  and  _512
REMARK  217  A    between atoms: _517  and  _519
REMARK  218  A    between atoms: _519  and  _520
REMARK  219  A    between atoms: _519  and  _522
REMARK  220  A    between atoms: _525  and  _527
REMARK  221  A    between atoms: _527  and  _528
REMARK  222  A    between atoms: _527  and  _530
REMARK  223  A    between atoms: _530  and  _531
REMARK  224  A    between atoms: _534  and  _536
REMARK  225  A    between atoms: _536  and  _537
REMARK  226  A    between atoms: _536  and  _539
REMARK  227  A    between atoms: _542  and  _544
REMARK  228  A    between atoms: _544  and  _545
REMARK  229  A    between atoms: _544  and  _547
REMARK  230  A    between atoms: _547  and  _548
REMARK  231  A    between atoms: _550  and  _552
REMARK  232  A    between atoms: _552  and  _553
REMARK  233  A    between atoms: _552  and  _555
REMARK  234  A    between atoms: _555  and  _556
REMARK  235  A    between atoms: _556  and  _557
REMARK  236  A    between atoms: _557  and  _558
REMARK  237  A    between atoms: _558  and  _559
REMARK  238  A    between atoms: _563  and  _565
REMARK  239  A    between atoms: _565  and  _566
REMARK  240  A    between atoms: _565  and  _568
REMARK  241  A    between atoms: _568  and  _569
REMARK  242  A    between atoms: _572  and  _574
REMARK  243  A    between atoms: _574  and  _575
REMARK  244  A    between atoms: _577  and  _579
REMARK  245  A    between atoms: _579  and  _580
REMARK  246  A    between atoms: _579  and  _582
REMARK  247  A    between atoms: _582  and  _583
REMARK  248  A    between atoms: _586  and  _588
REMARK  249  A    between atoms: _588  and  _589
REMARK  250  A    between atoms: _588  and  _591
REMARK  251  A    between atoms: _591  and  _592
REMARK  252  A    between atoms: _598  and  _600
REMARK  253  A    between atoms: _600  and  _601
REMARK  254  A    between atoms: _603  and  _605
REMARK  255  A    between atoms: _605  and  _606
REMARK  256  A    between atoms: _605  and  _608
REMARK  257  A    between atoms: _608  and  _609
REMARK  258  A    between atoms: _612  and  _614
REMARK  259  A    between atoms: _614  and  _615
REMARK  260  A    between atoms: _614  and  _617
REMARK  261  A    between atoms: _617  and  _618
REMARK  262  A    between atoms: _620  and  _622
REMARK  263  A    between atoms: _622  and  _623
REMARK  264  A    between atoms: _622  and  _625
REMARK  265  A    between atoms: _625  and  _626
REMARK  266  A    between atoms: _626  and  _627
REMARK  267  A    between atoms: _627  and  _628
REMARK  268  A    between atoms: _637  and  _639
REMARK  269  A    between atoms: _639  and  _640
REMARK  270  A    between atoms: _639  and  _642
REMARK  271  A    between atoms: _642  and  _643
REMARK  272  A    between atoms: _648  and  _649
REMARK  273  A    between atoms: _651  and  _653
REMARK  274  A    between atoms: _653  and  _654
REMARK  275  A    between atoms: _653  and  _656
REMARK  276  A    between atoms: _656  and  _657
REMARK  277  A    between atoms: _657  and  _658
REMARK  278  A    between atoms: _660  and  _662
REMARK  279  A    between atoms: _662  and  _663
REMARK  280  A    between atoms: _662  and  _665
REMARK  281  A    between atoms: _665  and  _666
REMARK                            x       y       z     vdW  Elec       q    Type
REMARK                         _______ _______ _______ _____ _____    ______ ____
ROOT
ATOM      1  O   HOH     1     -19.094 -32.843  -1.694  0.00  0.00    +0.000 OA
ENDROOT
TORSDOF 0
REMARK  Name = ../refined-set-2016/4k9y/4k9y_pocket.pdb
REMARK  281 active torsions:
REMARK  status: ('A' for Active; 'I' for Inactive)
REMARK    1  A    between atoms: _1  and  _3
REMARK    2  A    between atoms: _3  and  _4
REMARK    3  A    between atoms: _3  and  _6
REMARK    4  A    between atoms: _6  and  _7
REMARK    5  A    between atoms: _7  and  _8
REMARK    6  A    between atoms: _8  and  _9
REMARK    7  A    between atoms: _18  and  _20
REMARK    8  A    between atoms: _20  and  _21
REMARK    9  A    between atoms: _20  and  _23
REMARK   10  A    between atoms: _23  and  _24
REMARK   11  A    between atoms: _27  and  _29
REMARK   12  A    between atoms: _29  and  _30
REMARK   13  A    between atoms: _32  and  _34
REMARK   14  A    between atoms: _34  and  _35
REMARK   15  A    between atoms: _34  and  _37
REMARK   16  A    between atoms: _37  and  _38
REMARK   17  A    between atoms: _38  and  _39
REMARK   18  A    between atoms: _42  and  _44
REMARK   19  A    between atoms: _44  and  _45
REMARK   20  A    between atoms: _44  and  _47
REMARK   21  A    between atoms: _47  and  _48
REMARK   22  A    between atoms: _54  and  _56
REMARK   23  A    between atoms: _56  and  _57
REMARK   24  A    between atoms: _56  and  _59
REMARK   25  A    between atoms: _62  and  _64
REMARK   26  A    between atoms: _64  and  _65
REMARK   27  A    between atoms: _64  and  _67
REMARK   28  A    between atoms: _67  and  _68
REMARK   29  A    between atoms: _73  and  _75
REMARK   30  A    between atoms: _75  and  _76
REMARK   31  A    between atoms: _75  and  _78
REMARK   32  A    between atoms: _78  and  _79
REMARK   33  A    between atoms: _79  and  _80
REMARK   34  A    between atoms: _85  and  _87
REMARK   35  A    between atoms: _87  and  _88
REMARK   36  A    between atoms: _91  and  _93
REMARK   37  A    between atoms: _93  and  _94
REMARK   38  A    between atoms: _93  and  _96
REMARK   39  A    between atoms: _99  and  _101
REMARK   40  A    between atoms: _101  and  _102
REMARK   41  A    between atoms: _105  and  _107
REMARK   42  A    between atoms: _107  and  _108
REMARK   43  A    between atoms: _107  and  _110
REMARK   44  A    between atoms: _110  and  _111
REMARK   45  A    between atoms: _114  and  _116
REMARK   46  A    between atoms: _116  and  _117
REMARK   47  A    between atoms: _116  and  _119
REMARK   48  A    between atoms: _119  and  _120
REMARK   49  A    between atoms: _120  and  _121
REMARK   50  A    between atoms: _121  and  _122
REMARK   51  A    between atoms: _122  and  _123
REMARK   52  A    between atoms: _127  and  _129
REMARK   53  A    between atoms: _129  and  _130
REMARK   54  A    between atoms: _129  and  _132
REMARK   55  A    between atoms: _132  and  _133
REMARK   56  A    between atoms: _133  and  _134
REMARK   57  A    between atoms: _134  and  _135
REMARK   58  A    between atoms: _135  and  _136
REMARK   59  A    between atoms: _140  and  _142
REMARK   60  A    between atoms: _142  and  _143
REMARK   61  A    between atoms: _142  and  _145
REMARK   62  A    between atoms: _145  and  _146
REMARK   63  A    between atoms: _152  and  _154
REMARK   64  A    between atoms: _154  and  _155
REMARK   65  A    between atoms: _154  and  _157
REMARK   66  A    between atoms: _157  and  _158
REMARK   67  A    between atoms: _161  and  _163
REMARK   68  A    between atoms: _163  and  _164
REMARK   69  A    between atoms: _163  and  _166
REMARK   70  A    between atoms: _166  and  _167
REMARK   71  A    between atoms: _167  and  _168
REMARK   72  A    between atoms: _173  and  _175
REMARK   73  A    between atoms: _175  and  _176
REMARK   74  A    between atoms: _175  and  _178
REMARK   75  A    between atoms: _178  and  _179
REMARK   76  A    between atoms: _179  and  _180
REMARK   77  A    between atoms: _183  and  _185
REMARK   78  A    between atoms: _185  and  _186
REMARK   79  A    between atoms: _189  and  _191
REMARK   80  A    between atoms: _191  and  _192
REMARK   81  A    between atoms: _191  and  _194
REMARK   82  A    between atoms: _194  and  _195
REMARK   83  A    between atoms: _198  and  _200
REMARK   84  A    between atoms: _200  and  _201
REMARK   85  A    between atoms: _200  and  _203
REMARK   86  A    between atoms: _203  and  _204
REMARK   87  A    between atoms: _207  and  _209
REMARK   88  A    between atoms: _209  and  _210
REMARK   89  A    between atoms: _209  and  _212
REMARK   90  A    between atoms: _212  and  _213
REMARK   91  A    between atoms: _213  and  _214
REMARK   92  A    between atoms: _216  and  _218
REMARK   93  A    between atoms: _218  and  _219
REMARK   94  A    between atoms: _218  and  _221
REMARK   95  A    between atoms: _221  and  _222
REMARK   96  A    between atoms: _222  and  _223
REMARK   97  A    between atoms: _223  and  _224
REMARK   98  A    between atoms: _233  and  _235
REMARK   99  A    between atoms: _235  and  _236
REMARK  100  A    between atoms: _235  and  _238
REMARK  101  A    between atoms: _238  and  _239
REMARK  102  A    between atoms: _239  and  _240
REMARK  103  A    between atoms: _245  and  _247
REMARK  104  A    between atoms: _247  and  _248
REMARK  105  A    between atoms: _247  and  _250
REMARK  106  A    between atoms: _250  and  _251
REMARK  107  A    between atoms: _257  and  _259
REMARK  108  A    between atoms: _259  and  _260
REMARK  109  A    between atoms: _259  and  _262
REMARK  110  A    between atoms: _262  and  _263
REMARK  111  A    between atoms: _266  and  _268
REMARK  112  A    between atoms: _268  and  _269
REMARK  113  A    between atoms: _268  and  _271
REMARK  114  A    between atoms: _271  and  _272
REMARK  115  A    between atoms: _277  and  _279
REMARK  116  A    between atoms: _279  and  _280
REMARK  117  A    between atoms: _279  and  _282
REMARK  118  A    between atoms: _282  and  _283
REMARK  119  A    between atoms: _286  and  _288
REMARK  120  A    between atoms: _288  and  _289
REMARK  121  A    between atoms: _288  and  _291
REMARK  122  A    between atoms: _294  and  _296
REMARK  123  A    between atoms: _296  and  _297
REMARK  124  A    between atoms: _296  and  _299
REMARK  125  A    between atoms: _299  and  _300
REMARK  126  A    between atoms: _300  and  _301
REMARK  127  A    between atoms: _301  and  _302
REMARK  128  A    between atoms: _302  and  _303
REMARK  129  A    between atoms: _307  and  _309
REMARK  130  A    between atoms: _309  and  _310
REMARK  131  A    between atoms: _309  and  _312
REMARK  132  A    between atoms: _312  and  _313
REMARK  133  A    between atoms: _316  and  _318
REMARK  134  A    between atoms: _318  and  _319
REMARK  135  A    between atoms: _318  and  _321
REMARK  136  A    between atoms: _321  and  _322
REMARK  137  A    between atoms: _325  and  _327
REMARK  138  A    between atoms: _327  and  _328
REMARK  139  A    between atoms: _327  and  _330
REMARK  140  A    between atoms: _330  and  _331
REMARK  141  A    between atoms: _334  and  _336
REMARK  142  A    between atoms: _336  and  _337
REMARK  143  A    between atoms: _336  and  _339
REMARK  144  A    between atoms: _339  and  _340
REMARK  145  A    between atoms: _340  and  _341
REMARK  146  A    between atoms: _343  and  _345
REMARK  147  A    between atoms: _345  and  _346
REMARK  148  A    between atoms: _345  and  _348
REMARK  149  A    between atoms: _348  and  _349
REMARK  150  A    between atoms: _349  and  _350
REMARK  151  A    between atoms: _353  and  _355
REMARK  152  A    between atoms: _355  and  _356
REMARK  153  A    between atoms: _355  and  _358
REMARK  154  A    between atoms: _358  and  _359
REMARK  155  A    between atoms: _362  and  _364
REMARK  156  A    between atoms: _364  and  _365
REMARK  157  A    between atoms: _364  and  _367
REMARK  158  A    between atoms: _369  and  _371
REMARK  159  A    between atoms: _371  and  _372
REMARK  160  A    between atoms: _371  and  _374
REMARK  161  A    between atoms: _374  and  _375
REMARK  162  A    between atoms: _378  and  _380
REMARK  163  A    between atoms: _380  and  _381
REMARK  164  A    between atoms: _380  and  _383
REMARK  165  A    between atoms: _383  and  _384
REMARK  166  A    between atoms: _387  and  _389
REMARK  167  A    between atoms: _389  and  _390
REMARK  168  A    between atoms: _392  and  _394
REMARK  169  A    between atoms: _394  and  _395
REMARK  170  A    between atoms: _394  and  _397
REMARK  171  A    between atoms: _397  and  _398
REMARK  172  A    between atoms: _398  and  _399
REMARK  173  A    between atoms: _402  and  _404
REMARK  174  A    between atoms: _404  and  _405
REMARK  175  A    between atoms: _408  and  _410
REMARK  176  A    between atoms: _410  and  _411
REMARK  177  A    between atoms: _410  and  _413
REMARK  178  A    between atoms: _413  and  _414
REMARK  179  A    between atoms: _417  and  _419
REMARK  180  A    between atoms: _419  and  _420
REMARK  181  A    between atoms: _419  and  _422
REMARK  182  A    between atoms: _422  and  _423
REMARK  183  A    between atoms: _428  and  _429
REMARK  184  A    between atoms: _431  and  _433
REMARK  185  A    between atoms: _433  and  _434
REMARK  186  A    between atoms: _433  and  _436
REMARK  187  A    between atoms: _436  and  _437
REMARK  188  A    between atoms: _440  and  _442
REMARK  189  A    between atoms: _442  and  _443
REMARK  190  A    between atoms: _442  and  _445
REMARK  191  A    between atoms: _445  and  _446
REMARK  192  A    between atoms: _452  and  _454
REMARK  193  A    between atoms: _454  and  _455
REMARK  194  A    between atoms: _454  and  _457
REMARK  195  A    between atoms: _460  and  _462
REMARK  196  A    between atoms: _462  and  _463
REMARK  197  A    between atoms: _462  and  _465
REMARK  198  A    between atoms: _465  and  _466
REMARK  199  A    between atoms: _471  and  _473
REMARK  200  A    between atoms: _473  and  _474
REMARK  201  A    between atoms: _473  and  _476
REMARK  202  A    between atoms: _476  and  _477
REMARK  203  A    between atoms: _477  and  _478
REMARK  204  A    between atoms: _478  and  _479
REMARK  205  A    between atoms: _488  and  _490
REMARK  206  A    between atoms: _490  and  _491
REMARK  207  A    between atoms: _490  and  _493
REMARK  208  A    between atoms: _493  and  _494
REMARK  209  A    between atoms: _497  and  _499
REMARK  210  A    between atoms: _499  and  _500
REMARK  211  A    between atoms: _499  and  _502
REMARK  212  A    between atoms: _502  and  _503
REMARK  213  A    between atoms: _506  and  _508
REMARK  214  A    between atoms: _508  and  _509
REMARK  215  A    between atoms: _508  and  _511
REMARK  216  A    between atoms: _511  and  _512
REMARK  217  A    between atoms: _517  and  _519
REMARK  218  A    between atoms: _519  and  _520
REMARK  219  A    between atoms: _519  and  _522
REMARK  220  A    between atoms: _525  and  _527
REMARK  221  A    between atoms: _527  and  _528
REMARK  222  A    between atoms: _527  and  _530
REMARK  223  A    between atoms: _530  and  _531
REMARK  224  A    between atoms: _534  and  _536
REMARK  225  A    between atoms: _536  and  _537
REMARK  226  A    between atoms: _536  and  _539
REMARK  227  A    between atoms: _542  and  _544
REMARK  228  A    between atoms: _544  and  _545
REMARK  229  A    between atoms: _544  and  _547
REMARK  230  A    between atoms: _547  and  _548
REMARK  231  A    between atoms: _550  and  _552
REMARK  232  A    between atoms: _552  and  _553
REMARK  233  A    between atoms: _552  and  _555
REMARK  234  A    between atoms: _555  and  _556
REMARK  235  A    between atoms: _556  and  _557
REMARK  236  A    between atoms: _557  and  _558
REMARK  237  A    between atoms: _558  and  _559
REMARK  238  A    between atoms: _563  and  _565
REMARK  239  A    between atoms: _565  and  _566
REMARK  240  A    between atoms: _565  and  _568
REMARK  241  A    between atoms: _568  and  _569
REMARK  242  A    between atoms: _572  and  _574
REMARK  243  A    between atoms: _574  and  _575
REMARK  244  A    between atoms: _577  and  _579
REMARK  245  A    between atoms: _579  and  _580
REMARK  246  A    between atoms: _579  and  _582
REMARK  247  A    between atoms: _582  and  _583
REMARK  248  A    between atoms: _586  and  _588
REMARK  249  A    between atoms: _588  and  _589
REMARK  250  A    between atoms: _588  and  _591
REMARK  251  A    between atoms: _591  and  _592
REMARK  252  A    between atoms: _598  and  _600
REMARK  253  A    between atoms: _600  and  _601
REMARK  254  A    between atoms: _603  and  _605
REMARK  255  A    between atoms: _605  and  _606
REMARK  256  A    between atoms: _605  and  _608
REMARK  257  A    between atoms: _608  and  _609
REMARK  258  A    between atoms: _612  and  _614
REMARK  259  A    between atoms: _614  and  _615
REMARK  260  A    between atoms: _614  and  _617
REMARK  261  A    between atoms: _617  and  _618
REMARK  262  A    between atoms: _620  and  _622
REMARK  263  A    between atoms: _622  and  _623
REMARK  264  A    between atoms: _622  and  _625
REMARK  265  A    between atoms: _625  and  _626
REMARK  266  A    between atoms: _626  and  _627
REMARK  267  A    between atoms: _627  and  _628
REMARK  268  A    between atoms: _637  and  _639
REMARK  269  A    between atoms: _639  and  _640
REMARK  270  A    between atoms: _639  and  _642
REMARK  271  A    between atoms: _642  and  _643
REMARK  272  A    between atoms: _648  and  _649
REMARK  273  A    between atoms: _651  and  _653
REMARK  274  A    between atoms: _653  and  _654
REMARK  275  A    between atoms: _653  and  _656
REMARK  276  A    between atoms: _656  and  _657
REMARK  277  A    between atoms: _657  and  _658
REMARK  278  A    between atoms: _660  and  _662
REMARK  279  A    between atoms: _662  and  _663
REMARK  280  A    between atoms: _662  and  _665
REMARK  281  A    between atoms: _665  and  _666
REMARK                            x       y       z     vdW  Elec       q    Type
REMARK                         _______ _______ _______ _____ _____    ______ ____
ROOT
ATOM      1  O   HOH     1     -24.324 -39.946   5.226  0.00  0.00    +0.000 OA
ENDROOT
TORSDOF 0
REMARK  Name = ../refined-set-2016/4k9y/4k9y_pocket.pdb
REMARK  281 active torsions:
REMARK  status: ('A' for Active; 'I' for Inactive)
REMARK    1  A    between atoms: _1  and  _3
REMARK    2  A    between atoms: _3  and  _4
REMARK    3  A    between atoms: _3  and  _6
REMARK    4  A    between atoms: _6  and  _7
REMARK    5  A    between atoms: _7  and  _8
REMARK    6  A    between atoms: _8  and  _9
REMARK    7  A    between atoms: _18  and  _20
REMARK    8  A    between atoms: _20  and  _21
REMARK    9  A    between atoms: _20  and  _23
REMARK   10  A    between atoms: _23  and  _24
REMARK   11  A    between atoms: _27  and  _29
REMARK   12  A    between atoms: _29  and  _30
REMARK   13  A    between atoms: _32  and  _34
REMARK   14  A    between atoms: _34  and  _35
REMARK   15  A    between atoms: _34  and  _37
REMARK   16  A    between atoms: _37  and  _38
REMARK   17  A    between atoms: _38  and  _39
REMARK   18  A    between atoms: _42  and  _44
REMARK   19  A    between atoms: _44  and  _45
REMARK   20  A    between atoms: _44  and  _47
REMARK   21  A    between atoms: _47  and  _48
REMARK   22  A    between atoms: _54  and  _56
REMARK   23  A    between atoms: _56  and  _57
REMARK   24  A    between atoms: _56  and  _59
REMARK   25  A    between atoms: _62  and  _64
REMARK   26  A    between atoms: _64  and  _65
REMARK   27  A    between atoms: _64  and  _67
REMARK   28  A    between atoms: _67  and  _68
REMARK   29  A    between atoms: _73  and  _75
REMARK   30  A    between atoms: _75  and  _76
REMARK   31  A    between atoms: _75  and  _78
REMARK   32  A    between atoms: _78  and  _79
REMARK   33  A    between atoms: _79  and  _80
REMARK   34  A    between atoms: _85  and  _87
REMARK   35  A    between atoms: _87  and  _88
REMARK   36  A    between atoms: _91  and  _93
REMARK   37  A    between atoms: _93  and  _94
REMARK   38  A    between atoms: _93  and  _96
REMARK   39  A    between atoms: _99  and  _101
REMARK   40  A    between atoms: _101  and  _102
REMARK   41  A    between atoms: _105  and  _107
REMARK   42  A    between atoms: _107  and  _108
REMARK   43  A    between atoms: _107  and  _110
REMARK   44  A    between atoms: _110  and  _111
REMARK   45  A    between atoms: _114  and  _116
REMARK   46  A    between atoms: _116  and  _117
REMARK   47  A    between atoms: _116  and  _119
REMARK   48  A    between atoms: _119  and  _120
REMARK   49  A    between atoms: _120  and  _121
REMARK   50  A    between atoms: _121  and  _122
REMARK   51  A    between atoms: _122  and  _123
REMARK   52  A    between atoms: _127  and  _129
REMARK   53  A    between atoms: _129  and  _130
REMARK   54  A    between atoms: _129  and  _132
REMARK   55  A    between atoms: _132  and  _133
REMARK   56  A    between atoms: _133  and  _134
REMARK   57  A    between atoms: _134  and  _135
REMARK   58  A    between atoms: _135  and  _136
REMARK   59  A    between atoms: _140  and  _142
REMARK   60  A    between atoms: _142  and  _143
REMARK   61  A    between atoms: _142  and  _145
REMARK   62  A    between atoms: _145  and  _146
REMARK   63  A    between atoms: _152  and  _154
REMARK   64  A    between atoms: _154  and  _155
REMARK   65  A    between atoms: _154  and  _157
REMARK   66  A    between atoms: _157  and  _158
REMARK   67  A    between atoms: _161  and  _163
REMARK   68  A    between atoms: _163  and  _164
REMARK   69  A    between atoms: _163  and  _166
REMARK   70  A    between atoms: _166  and  _167
REMARK   71  A    between atoms: _167  and  _168
REMARK   72  A    between atoms: _173  and  _175
REMARK   73  A    between atoms: _175  and  _176
REMARK   74  A    between atoms: _175  and  _178
REMARK   75  A    between atoms: _178  and  _179
REMARK   76  A    between atoms: _179  and  _180
REMARK   77  A    between atoms: _183  and  _185
REMARK   78  A    between atoms: _185  and  _186
REMARK   79  A    between atoms: _189  and  _191
REMARK   80  A    between atoms: _191  and  _192
REMARK   81  A    between atoms: _191  and  _194
REMARK   82  A    between atoms: _194  and  _195
REMARK   83  A    between atoms: _198  and  _200
REMARK   84  A    between atoms: _200  and  _201
REMARK   85  A    between atoms: _200  and  _203
REMARK   86  A    between atoms: _203  and  _204
REMARK   87  A    between atoms: _207  and  _209
REMARK   88  A    between atoms: _209  and  _210
REMARK   89  A    between atoms: _209  and  _212
REMARK   90  A    between atoms: _212  and  _213
REMARK   91  A    between atoms: _213  and  _214
REMARK   92  A    between atoms: _216  and  _218
REMARK   93  A    between atoms: _218  and  _219
REMARK   94  A    between atoms: _218  and  _221
REMARK   95  A    between atoms: _221  and  _222
REMARK   96  A    between atoms: _222  and  _223
REMARK   97  A    between atoms: _223  and  _224
REMARK   98  A    between atoms: _233  and  _235
REMARK   99  A    between atoms: _235  and  _236
REMARK  100  A    between atoms: _235  and  _238
REMARK  101  A    between atoms: _238  and  _239
REMARK  102  A    between atoms: _239  and  _240
REMARK  103  A    between atoms: _245  and  _247
REMARK  104  A    between atoms: _247  and  _248
REMARK  105  A    between atoms: _247  and  _250
REMARK  106  A    between atoms: _250  and  _251
REMARK  107  A    between atoms: _257  and  _259
REMARK  108  A    between atoms: _259  and  _260
REMARK  109  A    between atoms: _259  and  _262
REMARK  110  A    between atoms: _262  and  _263
REMARK  111  A    between atoms: _266  and  _268
REMARK  112  A    between atoms: _268  and  _269
REMARK  113  A    between atoms: _268  and  _271
REMARK  114  A    between atoms: _271  and  _272
REMARK  115  A    between atoms: _277  and  _279
REMARK  116  A    between atoms: _279  and  _280
REMARK  117  A    between atoms: _279  and  _282
REMARK  118  A    between atoms: _282  and  _283
REMARK  119  A    between atoms: _286  and  _288
REMARK  120  A    between atoms: _288  and  _289
REMARK  121  A    between atoms: _288  and  _291
REMARK  122  A    between atoms: _294  and  _296
REMARK  123  A    between atoms: _296  and  _297
REMARK  124  A    between atoms: _296  and  _299
REMARK  125  A    between atoms: _299  and  _300
REMARK  126  A    between atoms: _300  and  _301
REMARK  127  A    between atoms: _301  and  _302
REMARK  128  A    between atoms: _302  and  _303
REMARK  129  A    between atoms: _307  and  _309
REMARK  130  A    between atoms: _309  and  _310
REMARK  131  A    between atoms: _309  and  _312
REMARK  132  A    between atoms: _312  and  _313
REMARK  133  A    between atoms: _316  and  _318
REMARK  134  A    between atoms: _318  and  _319
REMARK  135  A    between atoms: _318  and  _321
REMARK  136  A    between atoms: _321  and  _322
REMARK  137  A    between atoms: _325  and  _327
REMARK  138  A    between atoms: _327  and  _328
REMARK  139  A    between atoms: _327  and  _330
REMARK  140  A    between atoms: _330  and  _331
REMARK  141  A    between atoms: _334  and  _336
REMARK  142  A    between atoms: _336  and  _337
REMARK  143  A    between atoms: _336  and  _339
REMARK  144  A    between atoms: _339  and  _340
REMARK  145  A    between atoms: _340  and  _341
REMARK  146  A    between atoms: _343  and  _345
REMARK  147  A    between atoms: _345  and  _346
REMARK  148  A    between atoms: _345  and  _348
REMARK  149  A    between atoms: _348  and  _349
REMARK  150  A    between atoms: _349  and  _350
REMARK  151  A    between atoms: _353  and  _355
REMARK  152  A    between atoms: _355  and  _356
REMARK  153  A    between atoms: _355  and  _358
REMARK  154  A    between atoms: _358  and  _359
REMARK  155  A    between atoms: _362  and  _364
REMARK  156  A    between atoms: _364  and  _365
REMARK  157  A    between atoms: _364  and  _367
REMARK  158  A    between atoms: _369  and  _371
REMARK  159  A    between atoms: _371  and  _372
REMARK  160  A    between atoms: _371  and  _374
REMARK  161  A    between atoms: _374  and  _375
REMARK  162  A    between atoms: _378  and  _380
REMARK  163  A    between atoms: _380  and  _381
REMARK  164  A    between atoms: _380  and  _383
REMARK  165  A    between atoms: _383  and  _384
REMARK  166  A    between atoms: _387  and  _389
REMARK  167  A    between atoms: _389  and  _390
REMARK  168  A    between atoms: _392  and  _394
REMARK  169  A    between atoms: _394  and  _395
REMARK  170  A    between atoms: _394  and  _397
REMARK  171  A    between atoms: _397  and  _398
REMARK  172  A    between atoms: _398  and  _399
REMARK  173  A    between atoms: _402  and  _404
REMARK  174  A    between atoms: _404  and  _405
REMARK  175  A    between atoms: _408  and  _410
REMARK  176  A    between atoms: _410  and  _411
REMARK  177  A    between atoms: _410  and  _413
REMARK  178  A    between atoms: _413  and  _414
REMARK  179  A    between atoms: _417  and  _419
REMARK  180  A    between atoms: _419  and  _420
REMARK  181  A    between atoms: _419  and  _422
REMARK  182  A    between atoms: _422  and  _423
REMARK  183  A    between atoms: _428  and  _429
REMARK  184  A    between atoms: _431  and  _433
REMARK  185  A    between atoms: _433  and  _434
REMARK  186  A    between atoms: _433  and  _436
REMARK  187  A    between atoms: _436  and  _437
REMARK  188  A    between atoms: _440  and  _442
REMARK  189  A    between atoms: _442  and  _443
REMARK  190  A    between atoms: _442  and  _445
REMARK  191  A    between atoms: _445  and  _446
REMARK  192  A    between atoms: _452  and  _454
REMARK  193  A    between atoms: _454  and  _455
REMARK  194  A    between atoms: _454  and  _457
REMARK  195  A    between atoms: _460  and  _462
REMARK  196  A    between atoms: _462  and  _463
REMARK  197  A    between atoms: _462  and  _465
REMARK  198  A    between atoms: _465  and  _466
REMARK  199  A    between atoms: _471  and  _473
REMARK  200  A    between atoms: _473  and  _474
REMARK  201  A    between atoms: _473  and  _476
REMARK  202  A    between atoms: _476  and  _477
REMARK  203  A    between atoms: _477  and  _478
REMARK  204  A    between atoms: _478  and  _479
REMARK  205  A    between atoms: _488  and  _490
REMARK  206  A    between atoms: _490  and  _491
REMARK  207  A    between atoms: _490  and  _493
REMARK  208  A    between atoms: _493  and  _494
REMARK  209  A    between atoms: _497  and  _499
REMARK  210  A    between atoms: _499  and  _500
REMARK  211  A    between atoms: _499  and  _502
REMARK  212  A    between atoms: _502  and  _503
REMARK  213  A    between atoms: _506  and  _508
REMARK  214  A    between atoms: _508  and  _509
REMARK  215  A    between atoms: _508  and  _511
REMARK  216  A    between atoms: _511  and  _512
REMARK  217  A    between atoms: _517  and  _519
REMARK  218  A    between atoms: _519  and  _520
REMARK  219  A    between atoms: _519  and  _522
REMARK  220  A    between atoms: _525  and  _527
REMARK  221  A    between atoms: _527  and  _528
REMARK  222  A    between atoms: _527  and  _530
REMARK  223  A    between atoms: _530  and  _531
REMARK  224  A    between atoms: _534  and  _536
REMARK  225  A    between atoms: _536  and  _537
REMARK  226  A    between atoms: _536  and  _539
REMARK  227  A    between atoms: _542  and  _544
REMARK  228  A    between atoms: _544  and  _545
REMARK  229  A    between atoms: _544  and  _547
REMARK  230  A    between atoms: _547  and  _548
REMARK  231  A    between atoms: _550  and  _552
REMARK  232  A    between atoms: _552  and  _553
REMARK  233  A    between atoms: _552  and  _555
REMARK  234  A    between atoms: _555  and  _556
REMARK  235  A    between atoms: _556  and  _557
REMARK  236  A    between atoms: _557  and  _558
REMARK  237  A    between atoms: _558  and  _559
REMARK  238  A    between atoms: _563  and  _565
REMARK  239  A    between atoms: _565  and  _566
REMARK  240  A    between atoms: _565  and  _568
REMARK  241  A    between atoms: _568  and  _569
REMARK  242  A    between atoms: _572  and  _574
REMARK  243  A    between atoms: _574  and  _575
REMARK  244  A    between atoms: _577  and  _579
REMARK  245  A    between atoms: _579  and  _580
REMARK  246  A    between atoms: _579  and  _582
REMARK  247  A    between atoms: _582  and  _583
REMARK  248  A    between atoms: _586  and  _588
REMARK  249  A    between atoms: _588  and  _589
REMARK  250  A    between atoms: _588  and  _591
REMARK  251  A    between atoms: _591  and  _592
REMARK  252  A    between atoms: _598  and  _600
REMARK  253  A    between atoms: _600  and  _601
REMARK  254  A    between atoms: _603  and  _605
REMARK  255  A    between atoms: _605  and  _606
REMARK  256  A    between atoms: _605  and  _608
REMARK  257  A    between atoms: _608  and  _609
REMARK  258  A    between atoms: _612  and  _614
REMARK  259  A    between atoms: _614  and  _615
REMARK  260  A    between atoms: _614  and  _617
REMARK  261  A    between atoms: _617  and  _618
REMARK  262  A    between atoms: _620  and  _622
REMARK  263  A    between atoms: _622  and  _623
REMARK  264  A    between atoms: _622  and  _625
REMARK  265  A    between atoms: _625  and  _626
REMARK  266  A    between atoms: _626  and  _627
REMARK  267  A    between atoms: _627  and  _628
REMARK  268  A    between atoms: _637  and  _639
REMARK  269  A    between atoms: _639  and  _640
REMARK  270  A    between atoms: _639  and  _642
REMARK  271  A    between atoms: _642  and  _643
REMARK  272  A    between atoms: _648  and  _649
REMARK  273  A    between atoms: _651  and  _653
REMARK  274  A    between atoms: _653  and  _654
REMARK  275  A    between atoms: _653  and  _656
REMARK  276  A    between atoms: _656  and  _657
REMARK  277  A    between atoms: _657  and  _658
REMARK  278  A    between atoms: _660  and  _662
REMARK  279  A    between atoms: _662  and  _663
REMARK  280  A    between atoms: _662  and  _665
REMARK  281  A    between atoms: _665  and  _666
REMARK                            x       y       z     vdW  Elec       q    Type
REMARK                         _______ _______ _______ _____ _____    ______ ____
ROOT
ATOM      1  O   HOH     1     -30.598 -34.583  12.503  0.00  0.00    +0.000 OA
ENDROOT
TORSDOF 0
REMARK  Name = ../refined-set-2016/4k9y/4k9y_pocket.pdb
REMARK  281 active torsions:
REMARK  status: ('A' for Active; 'I' for Inactive)
REMARK    1  A    between atoms: _1  and  _3
REMARK    2  A    between atoms: _3  and  _4
REMARK    3  A    between atoms: _3  and  _6
REMARK    4  A    between atoms: _6  and  _7
REMARK    5  A    between atoms: _7  and  _8
REMARK    6  A    between atoms: _8  and  _9
REMARK    7  A    between atoms: _18  and  _20
REMARK    8  A    between atoms: _20  and  _21
REMARK    9  A    between atoms: _20  and  _23
REMARK   10  A    between atoms: _23  and  _24
REMARK   11  A    between atoms: _27  and  _29
REMARK   12  A    between atoms: _29  and  _30
REMARK   13  A    between atoms: _32  and  _34
REMARK   14  A    between atoms: _34  and  _35
REMARK   15  A    between atoms: _34  and  _37
REMARK   16  A    between atoms: _37  and  _38
REMARK   17  A    between atoms: _38  and  _39
REMARK   18  A    between atoms: _42  and  _44
REMARK   19  A    between atoms: _44  and  _45
REMARK   20  A    between atoms: _44  and  _47
REMARK   21  A    between atoms: _47  and  _48
REMARK   22  A    between atoms: _54  and  _56
REMARK   23  A    between atoms: _56  and  _57
REMARK   24  A    between atoms: _56  and  _59
REMARK   25  A    between atoms: _62  and  _64
REMARK   26  A    between atoms: _64  and  _65
REMARK   27  A    between atoms: _64  and  _67
REMARK   28  A    between atoms: _67  and  _68
REMARK   29  A    between atoms: _73  and  _75
REMARK   30  A    between atoms: _75  and  _76
REMARK   31  A    between atoms: _75  and  _78
REMARK   32  A    between atoms: _78  and  _79
REMARK   33  A    between atoms: _79  and  _80
REMARK   34  A    between atoms: _85  and  _87
REMARK   35  A    between atoms: _87  and  _88
REMARK   36  A    between atoms: _91  and  _93
REMARK   37  A    between atoms: _93  and  _94
REMARK   38  A    between atoms: _93  and  _96
REMARK   39  A    between atoms: _99  and  _101
REMARK   40  A    between atoms: _101  and  _102
REMARK   41  A    between atoms: _105  and  _107
REMARK   42  A    between atoms: _107  and  _108
REMARK   43  A    between atoms: _107  and  _110
REMARK   44  A    between atoms: _110  and  _111
REMARK   45  A    between atoms: _114  and  _116
REMARK   46  A    between atoms: _116  and  _117
REMARK   47  A    between atoms: _116  and  _119
REMARK   48  A    between atoms: _119  and  _120
REMARK   49  A    between atoms: _120  and  _121
REMARK   50  A    between atoms: _121  and  _122
REMARK   51  A    between atoms: _122  and  _123
REMARK   52  A    between atoms: _127  and  _129
REMARK   53  A    between atoms: _129  and  _130
REMARK   54  A    between atoms: _129  and  _132
REMARK   55  A    between atoms: _132  and  _133
REMARK   56  A    between atoms: _133  and  _134
REMARK   57  A    between atoms: _134  and  _135
REMARK   58  A    between atoms: _135  and  _136
REMARK   59  A    between atoms: _140  and  _142
REMARK   60  A    between atoms: _142  and  _143
REMARK   61  A    between atoms: _142  and  _145
REMARK   62  A    between atoms: _145  and  _146
REMARK   63  A    between atoms: _152  and  _154
REMARK   64  A    between atoms: _154  and  _155
REMARK   65  A    between atoms: _154  and  _157
REMARK   66  A    between atoms: _157  and  _158
REMARK   67  A    between atoms: _161  and  _163
REMARK   68  A    between atoms: _163  and  _164
REMARK   69  A    between atoms: _163  and  _166
REMARK   70  A    between atoms: _166  and  _167
REMARK   71  A    between atoms: _167  and  _168
REMARK   72  A    between atoms: _173  and  _175
REMARK   73  A    between atoms: _175  and  _176
REMARK   74  A    between atoms: _175  and  _178
REMARK   75  A    between atoms: _178  and  _179
REMARK   76  A    between atoms: _179  and  _180
REMARK   77  A    between atoms: _183  and  _185
REMARK   78  A    between atoms: _185  and  _186
REMARK   79  A    between atoms: _189  and  _191
REMARK   80  A    between atoms: _191  and  _192
REMARK   81  A    between atoms: _191  and  _194
REMARK   82  A    between atoms: _194  and  _195
REMARK   83  A    between atoms: _198  and  _200
REMARK   84  A    between atoms: _200  and  _201
REMARK   85  A    between atoms: _200  and  _203
REMARK   86  A    between atoms: _203  and  _204
REMARK   87  A    between atoms: _207  and  _209
REMARK   88  A    between atoms: _209  and  _210
REMARK   89  A    between atoms: _209  and  _212
REMARK   90  A    between atoms: _212  and  _213
REMARK   91  A    between atoms: _213  and  _214
REMARK   92  A    between atoms: _216  and  _218
REMARK   93  A    between atoms: _218  and  _219
REMARK   94  A    between atoms: _218  and  _221
REMARK   95  A    between atoms: _221  and  _222
REMARK   96  A    between atoms: _222  and  _223
REMARK   97  A    between atoms: _223  and  _224
REMARK   98  A    between atoms: _233  and  _235
REMARK   99  A    between atoms: _235  and  _236
REMARK  100  A    between atoms: _235  and  _238
REMARK  101  A    between atoms: _238  and  _239
REMARK  102  A    between atoms: _239  and  _240
REMARK  103  A    between atoms: _245  and  _247
REMARK  104  A    between atoms: _247  and  _248
REMARK  105  A    between atoms: _247  and  _250
REMARK  106  A    between atoms: _250  and  _251
REMARK  107  A    between atoms: _257  and  _259
REMARK  108  A    between atoms: _259  and  _260
REMARK  109  A    between atoms: _259  and  _262
REMARK  110  A    between atoms: _262  and  _263
REMARK  111  A    between atoms: _266  and  _268
REMARK  112  A    between atoms: _268  and  _269
REMARK  113  A    between atoms: _268  and  _271
REMARK  114  A    between atoms: _271  and  _272
REMARK  115  A    between atoms: _277  and  _279
REMARK  116  A    between atoms: _279  and  _280
REMARK  117  A    between atoms: _279  and  _282
REMARK  118  A    between atoms: _282  and  _283
REMARK  119  A    between atoms: _286  and  _288
REMARK  120  A    between atoms: _288  and  _289
REMARK  121  A    between atoms: _288  and  _291
REMARK  122  A    between atoms: _294  and  _296
REMARK  123  A    between atoms: _296  and  _297
REMARK  124  A    between atoms: _296  and  _299
REMARK  125  A    between atoms: _299  and  _300
REMARK  126  A    between atoms: _300  and  _301
REMARK  127  A    between atoms: _301  and  _302
REMARK  128  A    between atoms: _302  and  _303
REMARK  129  A    between atoms: _307  and  _309
REMARK  130  A    between atoms: _309  and  _310
REMARK  131  A    between atoms: _309  and  _312
REMARK  132  A    between atoms: _312  and  _313
REMARK  133  A    between atoms: _316  and  _318
REMARK  134  A    between atoms: _318  and  _319
REMARK  135  A    between atoms: _318  and  _321
REMARK  136  A    between atoms: _321  and  _322
REMARK  137  A    between atoms: _325  and  _327
REMARK  138  A    between atoms: _327  and  _328
REMARK  139  A    between atoms: _327  and  _330
REMARK  140  A    between atoms: _330  and  _331
REMARK  141  A    between atoms: _334  and  _336
REMARK  142  A    between atoms: _336  and  _337
REMARK  143  A    between atoms: _336  and  _339
REMARK  144  A    between atoms: _339  and  _340
REMARK  145  A    between atoms: _340  and  _341
REMARK  146  A    between atoms: _343  and  _345
REMARK  147  A    between atoms: _345  and  _346
REMARK  148  A    between atoms: _345  and  _348
REMARK  149  A    between atoms: _348  and  _349
REMARK  150  A    between atoms: _349  and  _350
REMARK  151  A    between atoms: _353  and  _355
REMARK  152  A    between atoms: _355  and  _356
REMARK  153  A    between atoms: _355  and  _358
REMARK  154  A    between atoms: _358  and  _359
REMARK  155  A    between atoms: _362  and  _364
REMARK  156  A    between atoms: _364  and  _365
REMARK  157  A    between atoms: _364  and  _367
REMARK  158  A    between atoms: _369  and  _371
REMARK  159  A    between atoms: _371  and  _372
REMARK  160  A    between atoms: _371  and  _374
REMARK  161  A    between atoms: _374  and  _375
REMARK  162  A    between atoms: _378  and  _380
REMARK  163  A    between atoms: _380  and  _381
REMARK  164  A    between atoms: _380  and  _383
REMARK  165  A    between atoms: _383  and  _384
REMARK  166  A    between atoms: _387  and  _389
REMARK  167  A    between atoms: _389  and  _390
REMARK  168  A    between atoms: _392  and  _394
REMARK  169  A    between atoms: _394  and  _395
REMARK  170  A    between atoms: _394  and  _397
REMARK  171  A    between atoms: _397  and  _398
REMARK  172  A    between atoms: _398  and  _399
REMARK  173  A    between atoms: _402  and  _404
REMARK  174  A    between atoms: _404  and  _405
REMARK  175  A    between atoms: _408  and  _410
REMARK  176  A    between atoms: _410  and  _411
REMARK  177  A    between atoms: _410  and  _413
REMARK  178  A    between atoms: _413  and  _414
REMARK  179  A    between atoms: _417  and  _419
REMARK  180  A    between atoms: _419  and  _420
REMARK  181  A    between atoms: _419  and  _422
REMARK  182  A    between atoms: _422  and  _423
REMARK  183  A    between atoms: _428  and  _429
REMARK  184  A    between atoms: _431  and  _433
REMARK  185  A    between atoms: _433  and  _434
REMARK  186  A    between atoms: _433  and  _436
REMARK  187  A    between atoms: _436  and  _437
REMARK  188  A    between atoms: _440  and  _442
REMARK  189  A    between atoms: _442  and  _443
REMARK  190  A    between atoms: _442  and  _445
REMARK  191  A    between atoms: _445  and  _446
REMARK  192  A    between atoms: _452  and  _454
REMARK  193  A    between atoms: _454  and  _455
REMARK  194  A    between atoms: _454  and  _457
REMARK  195  A    between atoms: _460  and  _462
REMARK  196  A    between atoms: _462  and  _463
REMARK  197  A    between atoms: _462  and  _465
REMARK  198  A    between atoms: _465  and  _466
REMARK  199  A    between atoms: _471  and  _473
REMARK  200  A    between atoms: _473  and  _474
REMARK  201  A    between atoms: _473  and  _476
REMARK  202  A    between atoms: _476  and  _477
REMARK  203  A    between atoms: _477  and  _478
REMARK  204  A    between atoms: _478  and  _479
REMARK  205  A    between atoms: _488  and  _490
REMARK  206  A    between atoms: _490  and  _491
REMARK  207  A    between atoms: _490  and  _493
REMARK  208  A    between atoms: _493  and  _494
REMARK  209  A    between atoms: _497  and  _499
REMARK  210  A    between atoms: _499  and  _500
REMARK  211  A    between atoms: _499  and  _502
REMARK  212  A    between atoms: _502  and  _503
REMARK  213  A    between atoms: _506  and  _508
REMARK  214  A    between atoms: _508  and  _509
REMARK  215  A    between atoms: _508  and  _511
REMARK  216  A    between atoms: _511  and  _512
REMARK  217  A    between atoms: _517  and  _519
REMARK  218  A    between atoms: _519  and  _520
REMARK  219  A    between atoms: _519  and  _522
REMARK  220  A    between atoms: _525  and  _527
REMARK  221  A    between atoms: _527  and  _528
REMARK  222  A    between atoms: _527  and  _530
REMARK  223  A    between atoms: _530  and  _531
REMARK  224  A    between atoms: _534  and  _536
REMARK  225  A    between atoms: _536  and  _537
REMARK  226  A    between atoms: _536  and  _539
REMARK  227  A    between atoms: _542  and  _544
REMARK  228  A    between atoms: _544  and  _545
REMARK  229  A    between atoms: _544  and  _547
REMARK  230  A    between atoms: _547  and  _548
REMARK  231  A    between atoms: _550  and  _552
REMARK  232  A    between atoms: _552  and  _553
REMARK  233  A    between atoms: _552  and  _555
REMARK  234  A    between atoms: _555  and  _556
REMARK  235  A    between atoms: _556  and  _557
REMARK  236  A    between atoms: _557  and  _558
REMARK  237  A    between atoms: _558  and  _559
REMARK  238  A    between atoms: _563  and  _565
REMARK  239  A    between atoms: _565  and  _566
REMARK  240  A    between atoms: _565  and  _568
REMARK  241  A    between atoms: _568  and  _569
REMARK  242  A    between atoms: _572  and  _574
REMARK  243  A    between atoms: _574  and  _575
REMARK  244  A    between atoms: _577  and  _579
REMARK  245  A    between atoms: _579  and  _580
REMARK  246  A    between atoms: _579  and  _582
REMARK  247  A    between atoms: _582  and  _583
REMARK  248  A    between atoms: _586  and  _588
REMARK  249  A    between atoms: _588  and  _589
REMARK  250  A    between atoms: _588  and  _591
REMARK  251  A    between atoms: _591  and  _592
REMARK  252  A    between atoms: _598  and  _600
REMARK  253  A    between atoms: _600  and  _601
REMARK  254  A    between atoms: _603  and  _605
REMARK  255  A    between atoms: _605  and  _606
REMARK  256  A    between atoms: _605  and  _608
REMARK  257  A    between atoms: _608  and  _609
REMARK  258  A    between atoms: _612  and  _614
REMARK  259  A    between atoms: _614  and  _615
REMARK  260  A    between atoms: _614  and  _617
REMARK  261  A    between atoms: _617  and  _618
REMARK  262  A    between atoms: _620  and  _622
REMARK  263  A    between atoms: _622  and  _623
REMARK  264  A    between atoms: _622  and  _625
REMARK  265  A    between atoms: _625  and  _626
REMARK  266  A    between atoms: _626  and  _627
REMARK  267  A    between atoms: _627  and  _628
REMARK  268  A    between atoms: _637  and  _639
REMARK  269  A    between atoms: _639  and  _640
REMARK  270  A    between atoms: _639  and  _642
REMARK  271  A    between atoms: _642  and  _643
REMARK  272  A    between atoms: _648  and  _649
REMARK  273  A    between atoms: _651  and  _653
REMARK  274  A    between atoms: _653  and  _654
REMARK  275  A    between atoms: _653  and  _656
REMARK  276  A    between atoms: _656  and  _657
REMARK  277  A    between atoms: _657  and  _658
REMARK  278  A    between atoms: _660  and  _662
REMARK  279  A    between atoms: _662  and  _663
REMARK  280  A    between atoms: _662  and  _665
REMARK  281  A    between atoms: _665  and  _666
REMARK                            x       y       z     vdW  Elec       q    Type
REMARK                         _______ _______ _______ _____ _____    ______ ____
ROOT
ATOM      1  O   HOH     1     -27.342 -40.484   2.827  0.00  0.00    +0.000 OA
ENDROOT
TORSDOF 0
REMARK  Name = ../refined-set-2016/4k9y/4k9y_pocket.pdb
REMARK  281 active torsions:
REMARK  status: ('A' for Active; 'I' for Inactive)
REMARK    1  A    between atoms: _1  and  _3
REMARK    2  A    between atoms: _3  and  _4
REMARK    3  A    between atoms: _3  and  _6
REMARK    4  A    between atoms: _6  and  _7
REMARK    5  A    between atoms: _7  and  _8
REMARK    6  A    between atoms: _8  and  _9
REMARK    7  A    between atoms: _18  and  _20
REMARK    8  A    between atoms: _20  and  _21
REMARK    9  A    between atoms: _20  and  _23
REMARK   10  A    between atoms: _23  and  _24
REMARK   11  A    between atoms: _27  and  _29
REMARK   12  A    between atoms: _29  and  _30
REMARK   13  A    between atoms: _32  and  _34
REMARK   14  A    between atoms: _34  and  _35
REMARK   15  A    between atoms: _34  and  _37
REMARK   16  A    between atoms: _37  and  _38
REMARK   17  A    between atoms: _38  and  _39
REMARK   18  A    between atoms: _42  and  _44
REMARK   19  A    between atoms: _44  and  _45
REMARK   20  A    between atoms: _44  and  _47
REMARK   21  A    between atoms: _47  and  _48
REMARK   22  A    between atoms: _54  and  _56
REMARK   23  A    between atoms: _56  and  _57
REMARK   24  A    between atoms: _56  and  _59
REMARK   25  A    between atoms: _62  and  _64
REMARK   26  A    between atoms: _64  and  _65
REMARK   27  A    between atoms: _64  and  _67
REMARK   28  A    between atoms: _67  and  _68
REMARK   29  A    between atoms: _73  and  _75
REMARK   30  A    between atoms: _75  and  _76
REMARK   31  A    between atoms: _75  and  _78
REMARK   32  A    between atoms: _78  and  _79
REMARK   33  A    between atoms: _79  and  _80
REMARK   34  A    between atoms: _85  and  _87
REMARK   35  A    between atoms: _87  and  _88
REMARK   36  A    between atoms: _91  and  _93
REMARK   37  A    between atoms: _93  and  _94
REMARK   38  A    between atoms: _93  and  _96
REMARK   39  A    between atoms: _99  and  _101
REMARK   40  A    between atoms: _101  and  _102
REMARK   41  A    between atoms: _105  and  _107
REMARK   42  A    between atoms: _107  and  _108
REMARK   43  A    between atoms: _107  and  _110
REMARK   44  A    between atoms: _110  and  _111
REMARK   45  A    between atoms: _114  and  _116
REMARK   46  A    between atoms: _116  and  _117
REMARK   47  A    between atoms: _116  and  _119
REMARK   48  A    between atoms: _119  and  _120
REMARK   49  A    between atoms: _120  and  _121
REMARK   50  A    between atoms: _121  and  _122
REMARK   51  A    between atoms: _122  and  _123
REMARK   52  A    between atoms: _127  and  _129
REMARK   53  A    between atoms: _129  and  _130
REMARK   54  A    between atoms: _129  and  _132
REMARK   55  A    between atoms: _132  and  _133
REMARK   56  A    between atoms: _133  and  _134
REMARK   57  A    between atoms: _134  and  _135
REMARK   58  A    between atoms: _135  and  _136
REMARK   59  A    between atoms: _140  and  _142
REMARK   60  A    between atoms: _142  and  _143
REMARK   61  A    between atoms: _142  and  _145
REMARK   62  A    between atoms: _145  and  _146
REMARK   63  A    between atoms: _152  and  _154
REMARK   64  A    between atoms: _154  and  _155
REMARK   65  A    between atoms: _154  and  _157
REMARK   66  A    between atoms: _157  and  _158
REMARK   67  A    between atoms: _161  and  _163
REMARK   68  A    between atoms: _163  and  _164
REMARK   69  A    between atoms: _163  and  _166
REMARK   70  A    between atoms: _166  and  _167
REMARK   71  A    between atoms: _167  and  _168
REMARK   72  A    between atoms: _173  and  _175
REMARK   73  A    between atoms: _175  and  _176
REMARK   74  A    between atoms: _175  and  _178
REMARK   75  A    between atoms: _178  and  _179
REMARK   76  A    between atoms: _179  and  _180
REMARK   77  A    between atoms: _183  and  _185
REMARK   78  A    between atoms: _185  and  _186
REMARK   79  A    between atoms: _189  and  _191
REMARK   80  A    between atoms: _191  and  _192
REMARK   81  A    between atoms: _191  and  _194
REMARK   82  A    between atoms: _194  and  _195
REMARK   83  A    between atoms: _198  and  _200
REMARK   84  A    between atoms: _200  and  _201
REMARK   85  A    between atoms: _200  and  _203
REMARK   86  A    between atoms: _203  and  _204
REMARK   87  A    between atoms: _207  and  _209
REMARK   88  A    between atoms: _209  and  _210
REMARK   89  A    between atoms: _209  and  _212
REMARK   90  A    between atoms: _212  and  _213
REMARK   91  A    between atoms: _213  and  _214
REMARK   92  A    between atoms: _216  and  _218
REMARK   93  A    between atoms: _218  and  _219
REMARK   94  A    between atoms: _218  and  _221
REMARK   95  A    between atoms: _221  and  _222
REMARK   96  A    between atoms: _222  and  _223
REMARK   97  A    between atoms: _223  and  _224
REMARK   98  A    between atoms: _233  and  _235
REMARK   99  A    between atoms: _235  and  _236
REMARK  100  A    between atoms: _235  and  _238
REMARK  101  A    between atoms: _238  and  _239
REMARK  102  A    between atoms: _239  and  _240
REMARK  103  A    between atoms: _245  and  _247
REMARK  104  A    between atoms: _247  and  _248
REMARK  105  A    between atoms: _247  and  _250
REMARK  106  A    between atoms: _250  and  _251
REMARK  107  A    between atoms: _257  and  _259
REMARK  108  A    between atoms: _259  and  _260
REMARK  109  A    between atoms: _259  and  _262
REMARK  110  A    between atoms: _262  and  _263
REMARK  111  A    between atoms: _266  and  _268
REMARK  112  A    between atoms: _268  and  _269
REMARK  113  A    between atoms: _268  and  _271
REMARK  114  A    between atoms: _271  and  _272
REMARK  115  A    between atoms: _277  and  _279
REMARK  116  A    between atoms: _279  and  _280
REMARK  117  A    between atoms: _279  and  _282
REMARK  118  A    between atoms: _282  and  _283
REMARK  119  A    between atoms: _286  and  _288
REMARK  120  A    between atoms: _288  and  _289
REMARK  121  A    between atoms: _288  and  _291
REMARK  122  A    between atoms: _294  and  _296
REMARK  123  A    between atoms: _296  and  _297
REMARK  124  A    between atoms: _296  and  _299
REMARK  125  A    between atoms: _299  and  _300
REMARK  126  A    between atoms: _300  and  _301
REMARK  127  A    between atoms: _301  and  _302
REMARK  128  A    between atoms: _302  and  _303
REMARK  129  A    between atoms: _307  and  _309
REMARK  130  A    between atoms: _309  and  _310
REMARK  131  A    between atoms: _309  and  _312
REMARK  132  A    between atoms: _312  and  _313
REMARK  133  A    between atoms: _316  and  _318
REMARK  134  A    between atoms: _318  and  _319
REMARK  135  A    between atoms: _318  and  _321
REMARK  136  A    between atoms: _321  and  _322
REMARK  137  A    between atoms: _325  and  _327
REMARK  138  A    between atoms: _327  and  _328
REMARK  139  A    between atoms: _327  and  _330
REMARK  140  A    between atoms: _330  and  _331
REMARK  141  A    between atoms: _334  and  _336
REMARK  142  A    between atoms: _336  and  _337
REMARK  143  A    between atoms: _336  and  _339
REMARK  144  A    between atoms: _339  and  _340
REMARK  145  A    between atoms: _340  and  _341
REMARK  146  A    between atoms: _343  and  _345
REMARK  147  A    between atoms: _345  and  _346
REMARK  148  A    between atoms: _345  and  _348
REMARK  149  A    between atoms: _348  and  _349
REMARK  150  A    between atoms: _349  and  _350
REMARK  151  A    between atoms: _353  and  _355
REMARK  152  A    between atoms: _355  and  _356
REMARK  153  A    between atoms: _355  and  _358
REMARK  154  A    between atoms: _358  and  _359
REMARK  155  A    between atoms: _362  and  _364
REMARK  156  A    between atoms: _364  and  _365
REMARK  157  A    between atoms: _364  and  _367
REMARK  158  A    between atoms: _369  and  _371
REMARK  159  A    between atoms: _371  and  _372
REMARK  160  A    between atoms: _371  and  _374
REMARK  161  A    between atoms: _374  and  _375
REMARK  162  A    between atoms: _378  and  _380
REMARK  163  A    between atoms: _380  and  _381
REMARK  164  A    between atoms: _380  and  _383
REMARK  165  A    between atoms: _383  and  _384
REMARK  166  A    between atoms: _387  and  _389
REMARK  167  A    between atoms: _389  and  _390
REMARK  168  A    between atoms: _392  and  _394
REMARK  169  A    between atoms: _394  and  _395
REMARK  170  A    between atoms: _394  and  _397
REMARK  171  A    between atoms: _397  and  _398
REMARK  172  A    between atoms: _398  and  _399
REMARK  173  A    between atoms: _402  and  _404
REMARK  174  A    between atoms: _404  and  _405
REMARK  175  A    between atoms: _408  and  _410
REMARK  176  A    between atoms: _410  and  _411
REMARK  177  A    between atoms: _410  and  _413
REMARK  178  A    between atoms: _413  and  _414
REMARK  179  A    between atoms: _417  and  _419
REMARK  180  A    between atoms: _419  and  _420
REMARK  181  A    between atoms: _419  and  _422
REMARK  182  A    between atoms: _422  and  _423
REMARK  183  A    between atoms: _428  and  _429
REMARK  184  A    between atoms: _431  and  _433
REMARK  185  A    between atoms: _433  and  _434
REMARK  186  A    between atoms: _433  and  _436
REMARK  187  A    between atoms: _436  and  _437
REMARK  188  A    between atoms: _440  and  _442
REMARK  189  A    between atoms: _442  and  _443
REMARK  190  A    between atoms: _442  and  _445
REMARK  191  A    between atoms: _445  and  _446
REMARK  192  A    between atoms: _452  and  _454
REMARK  193  A    between atoms: _454  and  _455
REMARK  194  A    between atoms: _454  and  _457
REMARK  195  A    between atoms: _460  and  _462
REMARK  196  A    between atoms: _462  and  _463
REMARK  197  A    between atoms: _462  and  _465
REMARK  198  A    between atoms: _465  and  _466
REMARK  199  A    between atoms: _471  and  _473
REMARK  200  A    between atoms: _473  and  _474
REMARK  201  A    between atoms: _473  and  _476
REMARK  202  A    between atoms: _476  and  _477
REMARK  203  A    between atoms: _477  and  _478
REMARK  204  A    between atoms: _478  and  _479
REMARK  205  A    between atoms: _488  and  _490
REMARK  206  A    between atoms: _490  and  _491
REMARK  207  A    between atoms: _490  and  _493
REMARK  208  A    between atoms: _493  and  _494
REMARK  209  A    between atoms: _497  and  _499
REMARK  210  A    between atoms: _499  and  _500
REMARK  211  A    between atoms: _499  and  _502
REMARK  212  A    between atoms: _502  and  _503
REMARK  213  A    between atoms: _506  and  _508
REMARK  214  A    between atoms: _508  and  _509
REMARK  215  A    between atoms: _508  and  _511
REMARK  216  A    between atoms: _511  and  _512
REMARK  217  A    between atoms: _517  and  _519
REMARK  218  A    between atoms: _519  and  _520
REMARK  219  A    between atoms: _519  and  _522
REMARK  220  A    between atoms: _525  and  _527
REMARK  221  A    between atoms: _527  and  _528
REMARK  222  A    between atoms: _527  and  _530
REMARK  223  A    between atoms: _530  and  _531
REMARK  224  A    between atoms: _534  and  _536
REMARK  225  A    between atoms: _536  and  _537
REMARK  226  A    between atoms: _536  and  _539
REMARK  227  A    between atoms: _542  and  _544
REMARK  228  A    between atoms: _544  and  _545
REMARK  229  A    between atoms: _544  and  _547
REMARK  230  A    between atoms: _547  and  _548
REMARK  231  A    between atoms: _550  and  _552
REMARK  232  A    between atoms: _552  and  _553
REMARK  233  A    between atoms: _552  and  _555
REMARK  234  A    between atoms: _555  and  _556
REMARK  235  A    between atoms: _556  and  _557
REMARK  236  A    between atoms: _557  and  _558
REMARK  237  A    between atoms: _558  and  _559
REMARK  238  A    between atoms: _563  and  _565
REMARK  239  A    between atoms: _565  and  _566
REMARK  240  A    between atoms: _565  and  _568
REMARK  241  A    between atoms: _568  and  _569
REMARK  242  A    between atoms: _572  and  _574
REMARK  243  A    between atoms: _574  and  _575
REMARK  244  A    between atoms: _577  and  _579
REMARK  245  A    between atoms: _579  and  _580
REMARK  246  A    between atoms: _579  and  _582
REMARK  247  A    between atoms: _582  and  _583
REMARK  248  A    between atoms: _586  and  _588
REMARK  249  A    between atoms: _588  and  _589
REMARK  250  A    between atoms: _588  and  _591
REMARK  251  A    between atoms: _591  and  _592
REMARK  252  A    between atoms: _598  and  _600
REMARK  253  A    between atoms: _600  and  _601
REMARK  254  A    between atoms: _603  and  _605
REMARK  255  A    between atoms: _605  and  _606
REMARK  256  A    between atoms: _605  and  _608
REMARK  257  A    between atoms: _608  and  _609
REMARK  258  A    between atoms: _612  and  _614
REMARK  259  A    between atoms: _614  and  _615
REMARK  260  A    between atoms: _614  and  _617
REMARK  261  A    between atoms: _617  and  _618
REMARK  262  A    between atoms: _620  and  _622
REMARK  263  A    between atoms: _622  and  _623
REMARK  264  A    between atoms: _622  and  _625
REMARK  265  A    between atoms: _625  and  _626
REMARK  266  A    between atoms: _626  and  _627
REMARK  267  A    between atoms: _627  and  _628
REMARK  268  A    between atoms: _637  and  _639
REMARK  269  A    between atoms: _639  and  _640
REMARK  270  A    between atoms: _639  and  _642
REMARK  271  A    between atoms: _642  and  _643
REMARK  272  A    between atoms: _648  and  _649
REMARK  273  A    between atoms: _651  and  _653
REMARK  274  A    between atoms: _653  and  _654
REMARK  275  A    between atoms: _653  and  _656
REMARK  276  A    between atoms: _656  and  _657
REMARK  277  A    between atoms: _657  and  _658
REMARK  278  A    between atoms: _660  and  _662
REMARK  279  A    between atoms: _662  and  _663
REMARK  280  A    between atoms: _662  and  _665
REMARK  281  A    between atoms: _665  and  _666
REMARK                            x       y       z     vdW  Elec       q    Type
REMARK                         _______ _______ _______ _____ _____    ______ ____
ROOT
ATOM      1  O   HOH     1     -22.688 -29.946  12.790  0.00  0.00    +0.000 OA
ENDROOT
TORSDOF 0
REMARK  Name = ../refined-set-2016/4k9y/4k9y_pocket.pdb
REMARK  281 active torsions:
REMARK  status: ('A' for Active; 'I' for Inactive)
REMARK    1  A    between atoms: _1  and  _3
REMARK    2  A    between atoms: _3  and  _4
REMARK    3  A    between atoms: _3  and  _6
REMARK    4  A    between atoms: _6  and  _7
REMARK    5  A    between atoms: _7  and  _8
REMARK    6  A    between atoms: _8  and  _9
REMARK    7  A    between atoms: _18  and  _20
REMARK    8  A    between atoms: _20  and  _21
REMARK    9  A    between atoms: _20  and  _23
REMARK   10  A    between atoms: _23  and  _24
REMARK   11  A    between atoms: _27  and  _29
REMARK   12  A    between atoms: _29  and  _30
REMARK   13  A    between atoms: _32  and  _34
REMARK   14  A    between atoms: _34  and  _35
REMARK   15  A    between atoms: _34  and  _37
REMARK   16  A    between atoms: _37  and  _38
REMARK   17  A    between atoms: _38  and  _39
REMARK   18  A    between atoms: _42  and  _44
REMARK   19  A    between atoms: _44  and  _45
REMARK   20  A    between atoms: _44  and  _47
REMARK   21  A    between atoms: _47  and  _48
REMARK   22  A    between atoms: _54  and  _56
REMARK   23  A    between atoms: _56  and  _57
REMARK   24  A    between atoms: _56  and  _59
REMARK   25  A    between atoms: _62  and  _64
REMARK   26  A    between atoms: _64  and  _65
REMARK   27  A    between atoms: _64  and  _67
REMARK   28  A    between atoms: _67  and  _68
REMARK   29  A    between atoms: _73  and  _75
REMARK   30  A    between atoms: _75  and  _76
REMARK   31  A    between atoms: _75  and  _78
REMARK   32  A    between atoms: _78  and  _79
REMARK   33  A    between atoms: _79  and  _80
REMARK   34  A    between atoms: _85  and  _87
REMARK   35  A    between atoms: _87  and  _88
REMARK   36  A    between atoms: _91  and  _93
REMARK   37  A    between atoms: _93  and  _94
REMARK   38  A    between atoms: _93  and  _96
REMARK   39  A    between atoms: _99  and  _101
REMARK   40  A    between atoms: _101  and  _102
REMARK   41  A    between atoms: _105  and  _107
REMARK   42  A    between atoms: _107  and  _108
REMARK   43  A    between atoms: _107  and  _110
REMARK   44  A    between atoms: _110  and  _111
REMARK   45  A    between atoms: _114  and  _116
REMARK   46  A    between atoms: _116  and  _117
REMARK   47  A    between atoms: _116  and  _119
REMARK   48  A    between atoms: _119  and  _120
REMARK   49  A    between atoms: _120  and  _121
REMARK   50  A    between atoms: _121  and  _122
REMARK   51  A    between atoms: _122  and  _123
REMARK   52  A    between atoms: _127  and  _129
REMARK   53  A    between atoms: _129  and  _130
REMARK   54  A    between atoms: _129  and  _132
REMARK   55  A    between atoms: _132  and  _133
REMARK   56  A    between atoms: _133  and  _134
REMARK   57  A    between atoms: _134  and  _135
REMARK   58  A    between atoms: _135  and  _136
REMARK   59  A    between atoms: _140  and  _142
REMARK   60  A    between atoms: _142  and  _143
REMARK   61  A    between atoms: _142  and  _145
REMARK   62  A    between atoms: _145  and  _146
REMARK   63  A    between atoms: _152  and  _154
REMARK   64  A    between atoms: _154  and  _155
REMARK   65  A    between atoms: _154  and  _157
REMARK   66  A    between atoms: _157  and  _158
REMARK   67  A    between atoms: _161  and  _163
REMARK   68  A    between atoms: _163  and  _164
REMARK   69  A    between atoms: _163  and  _166
REMARK   70  A    between atoms: _166  and  _167
REMARK   71  A    between atoms: _167  and  _168
REMARK   72  A    between atoms: _173  and  _175
REMARK   73  A    between atoms: _175  and  _176
REMARK   74  A    between atoms: _175  and  _178
REMARK   75  A    between atoms: _178  and  _179
REMARK   76  A    between atoms: _179  and  _180
REMARK   77  A    between atoms: _183  and  _185
REMARK   78  A    between atoms: _185  and  _186
REMARK   79  A    between atoms: _189  and  _191
REMARK   80  A    between atoms: _191  and  _192
REMARK   81  A    between atoms: _191  and  _194
REMARK   82  A    between atoms: _194  and  _195
REMARK   83  A    between atoms: _198  and  _200
REMARK   84  A    between atoms: _200  and  _201
REMARK   85  A    between atoms: _200  and  _203
REMARK   86  A    between atoms: _203  and  _204
REMARK   87  A    between atoms: _207  and  _209
REMARK   88  A    between atoms: _209  and  _210
REMARK   89  A    between atoms: _209  and  _212
REMARK   90  A    between atoms: _212  and  _213
REMARK   91  A    between atoms: _213  and  _214
REMARK   92  A    between atoms: _216  and  _218
REMARK   93  A    between atoms: _218  and  _219
REMARK   94  A    between atoms: _218  and  _221
REMARK   95  A    between atoms: _221  and  _222
REMARK   96  A    between atoms: _222  and  _223
REMARK   97  A    between atoms: _223  and  _224
REMARK   98  A    between atoms: _233  and  _235
REMARK   99  A    between atoms: _235  and  _236
REMARK  100  A    between atoms: _235  and  _238
REMARK  101  A    between atoms: _238  and  _239
REMARK  102  A    between atoms: _239  and  _240
REMARK  103  A    between atoms: _245  and  _247
REMARK  104  A    between atoms: _247  and  _248
REMARK  105  A    between atoms: _247  and  _250
REMARK  106  A    between atoms: _250  and  _251
REMARK  107  A    between atoms: _257  and  _259
REMARK  108  A    between atoms: _259  and  _260
REMARK  109  A    between atoms: _259  and  _262
REMARK  110  A    between atoms: _262  and  _263
REMARK  111  A    between atoms: _266  and  _268
REMARK  112  A    between atoms: _268  and  _269
REMARK  113  A    between atoms: _268  and  _271
REMARK  114  A    between atoms: _271  and  _272
REMARK  115  A    between atoms: _277  and  _279
REMARK  116  A    between atoms: _279  and  _280
REMARK  117  A    between atoms: _279  and  _282
REMARK  118  A    between atoms: _282  and  _283
REMARK  119  A    between atoms: _286  and  _288
REMARK  120  A    between atoms: _288  and  _289
REMARK  121  A    between atoms: _288  and  _291
REMARK  122  A    between atoms: _294  and  _296
REMARK  123  A    between atoms: _296  and  _297
REMARK  124  A    between atoms: _296  and  _299
REMARK  125  A    between atoms: _299  and  _300
REMARK  126  A    between atoms: _300  and  _301
REMARK  127  A    between atoms: _301  and  _302
REMARK  128  A    between atoms: _302  and  _303
REMARK  129  A    between atoms: _307  and  _309
REMARK  130  A    between atoms: _309  and  _310
REMARK  131  A    between atoms: _309  and  _312
REMARK  132  A    between atoms: _312  and  _313
REMARK  133  A    between atoms: _316  and  _318
REMARK  134  A    between atoms: _318  and  _319
REMARK  135  A    between atoms: _318  and  _321
REMARK  136  A    between atoms: _321  and  _322
REMARK  137  A    between atoms: _325  and  _327
REMARK  138  A    between atoms: _327  and  _328
REMARK  139  A    between atoms: _327  and  _330
REMARK  140  A    between atoms: _330  and  _331
REMARK  141  A    between atoms: _334  and  _336
REMARK  142  A    between atoms: _336  and  _337
REMARK  143  A    between atoms: _336  and  _339
REMARK  144  A    between atoms: _339  and  _340
REMARK  145  A    between atoms: _340  and  _341
REMARK  146  A    between atoms: _343  and  _345
REMARK  147  A    between atoms: _345  and  _346
REMARK  148  A    between atoms: _345  and  _348
REMARK  149  A    between atoms: _348  and  _349
REMARK  150  A    between atoms: _349  and  _350
REMARK  151  A    between atoms: _353  and  _355
REMARK  152  A    between atoms: _355  and  _356
REMARK  153  A    between atoms: _355  and  _358
REMARK  154  A    between atoms: _358  and  _359
REMARK  155  A    between atoms: _362  and  _364
REMARK  156  A    between atoms: _364  and  _365
REMARK  157  A    between atoms: _364  and  _367
REMARK  158  A    between atoms: _369  and  _371
REMARK  159  A    between atoms: _371  and  _372
REMARK  160  A    between atoms: _371  and  _374
REMARK  161  A    between atoms: _374  and  _375
REMARK  162  A    between atoms: _378  and  _380
REMARK  163  A    between atoms: _380  and  _381
REMARK  164  A    between atoms: _380  and  _383
REMARK  165  A    between atoms: _383  and  _384
REMARK  166  A    between atoms: _387  and  _389
REMARK  167  A    between atoms: _389  and  _390
REMARK  168  A    between atoms: _392  and  _394
REMARK  169  A    between atoms: _394  and  _395
REMARK  170  A    between atoms: _394  and  _397
REMARK  171  A    between atoms: _397  and  _398
REMARK  172  A    between atoms: _398  and  _399
REMARK  173  A    between atoms: _402  and  _404
REMARK  174  A    between atoms: _404  and  _405
REMARK  175  A    between atoms: _408  and  _410
REMARK  176  A    between atoms: _410  and  _411
REMARK  177  A    between atoms: _410  and  _413
REMARK  178  A    between atoms: _413  and  _414
REMARK  179  A    between atoms: _417  and  _419
REMARK  180  A    between atoms: _419  and  _420
REMARK  181  A    between atoms: _419  and  _422
REMARK  182  A    between atoms: _422  and  _423
REMARK  183  A    between atoms: _428  and  _429
REMARK  184  A    between atoms: _431  and  _433
REMARK  185  A    between atoms: _433  and  _434
REMARK  186  A    between atoms: _433  and  _436
REMARK  187  A    between atoms: _436  and  _437
REMARK  188  A    between atoms: _440  and  _442
REMARK  189  A    between atoms: _442  and  _443
REMARK  190  A    between atoms: _442  and  _445
REMARK  191  A    between atoms: _445  and  _446
REMARK  192  A    between atoms: _452  and  _454
REMARK  193  A    between atoms: _454  and  _455
REMARK  194  A    between atoms: _454  and  _457
REMARK  195  A    between atoms: _460  and  _462
REMARK  196  A    between atoms: _462  and  _463
REMARK  197  A    between atoms: _462  and  _465
REMARK  198  A    between atoms: _465  and  _466
REMARK  199  A    between atoms: _471  and  _473
REMARK  200  A    between atoms: _473  and  _474
REMARK  201  A    between atoms: _473  and  _476
REMARK  202  A    between atoms: _476  and  _477
REMARK  203  A    between atoms: _477  and  _478
REMARK  204  A    between atoms: _478  and  _479
REMARK  205  A    between atoms: _488  and  _490
REMARK  206  A    between atoms: _490  and  _491
REMARK  207  A    between atoms: _490  and  _493
REMARK  208  A    between atoms: _493  and  _494
REMARK  209  A    between atoms: _497  and  _499
REMARK  210  A    between atoms: _499  and  _500
REMARK  211  A    between atoms: _499  and  _502
REMARK  212  A    between atoms: _502  and  _503
REMARK  213  A    between atoms: _506  and  _508
REMARK  214  A    between atoms: _508  and  _509
REMARK  215  A    between atoms: _508  and  _511
REMARK  216  A    between atoms: _511  and  _512
REMARK  217  A    between atoms: _517  and  _519
REMARK  218  A    between atoms: _519  and  _520
REMARK  219  A    between atoms: _519  and  _522
REMARK  220  A    between atoms: _525  and  _527
REMARK  221  A    between atoms: _527  and  _528
REMARK  222  A    between atoms: _527  and  _530
REMARK  223  A    between atoms: _530  and  _531
REMARK  224  A    between atoms: _534  and  _536
REMARK  225  A    between atoms: _536  and  _537
REMARK  226  A    between atoms: _536  and  _539
REMARK  227  A    between atoms: _542  and  _544
REMARK  228  A    between atoms: _544  and  _545
REMARK  229  A    between atoms: _544  and  _547
REMARK  230  A    between atoms: _547  and  _548
REMARK  231  A    between atoms: _550  and  _552
REMARK  232  A    between atoms: _552  and  _553
REMARK  233  A    between atoms: _552  and  _555
REMARK  234  A    between atoms: _555  and  _556
REMARK  235  A    between atoms: _556  and  _557
REMARK  236  A    between atoms: _557  and  _558
REMARK  237  A    between atoms: _558  and  _559
REMARK  238  A    between atoms: _563  and  _565
REMARK  239  A    between atoms: _565  and  _566
REMARK  240  A    between atoms: _565  and  _568
REMARK  241  A    between atoms: _568  and  _569
REMARK  242  A    between atoms: _572  and  _574
REMARK  243  A    between atoms: _574  and  _575
REMARK  244  A    between atoms: _577  and  _579
REMARK  245  A    between atoms: _579  and  _580
REMARK  246  A    between atoms: _579  and  _582
REMARK  247  A    between atoms: _582  and  _583
REMARK  248  A    between atoms: _586  and  _588
REMARK  249  A    between atoms: _588  and  _589
REMARK  250  A    between atoms: _588  and  _591
REMARK  251  A    between atoms: _591  and  _592
REMARK  252  A    between atoms: _598  and  _600
REMARK  253  A    between atoms: _600  and  _601
REMARK  254  A    between atoms: _603  and  _605
REMARK  255  A    between atoms: _605  and  _606
REMARK  256  A    between atoms: _605  and  _608
REMARK  257  A    between atoms: _608  and  _609
REMARK  258  A    between atoms: _612  and  _614
REMARK  259  A    between atoms: _614  and  _615
REMARK  260  A    between atoms: _614  and  _617
REMARK  261  A    between atoms: _617  and  _618
REMARK  262  A    between atoms: _620  and  _622
REMARK  263  A    between atoms: _622  and  _623
REMARK  264  A    between atoms: _622  and  _625
REMARK  265  A    between atoms: _625  and  _626
REMARK  266  A    between atoms: _626  and  _627
REMARK  267  A    between atoms: _627  and  _628
REMARK  268  A    between atoms: _637  and  _639
REMARK  269  A    between atoms: _639  and  _640
REMARK  270  A    between atoms: _639  and  _642
REMARK  271  A    between atoms: _642  and  _643
REMARK  272  A    between atoms: _648  and  _649
REMARK  273  A    between atoms: _651  and  _653
REMARK  274  A    between atoms: _653  and  _654
REMARK  275  A    between atoms: _653  and  _656
REMARK  276  A    between atoms: _656  and  _657
REMARK  277  A    between atoms: _657  and  _658
REMARK  278  A    between atoms: _660  and  _662
REMARK  279  A    between atoms: _662  and  _663
REMARK  280  A    between atoms: _662  and  _665
REMARK  281  A    between atoms: _665  and  _666
REMARK                            x       y       z     vdW  Elec       q    Type
REMARK                         _______ _______ _______ _____ _____    ______ ____
ROOT
ATOM      1  O   HOH     1     -28.309 -32.429  15.016  0.00  0.00    +0.000 OA
ENDROOT
TORSDOF 0
REMARK  Name = ../refined-set-2016/4k9y/4k9y_pocket.pdb
REMARK  281 active torsions:
REMARK  status: ('A' for Active; 'I' for Inactive)
REMARK    1  A    between atoms: _1  and  _3
REMARK    2  A    between atoms: _3  and  _4
REMARK    3  A    between atoms: _3  and  _6
REMARK    4  A    between atoms: _6  and  _7
REMARK    5  A    between atoms: _7  and  _8
REMARK    6  A    between atoms: _8  and  _9
REMARK    7  A    between atoms: _18  and  _20
REMARK    8  A    between atoms: _20  and  _21
REMARK    9  A    between atoms: _20  and  _23
REMARK   10  A    between atoms: _23  and  _24
REMARK   11  A    between atoms: _27  and  _29
REMARK   12  A    between atoms: _29  and  _30
REMARK   13  A    between atoms: _32  and  _34
REMARK   14  A    between atoms: _34  and  _35
REMARK   15  A    between atoms: _34  and  _37
REMARK   16  A    between atoms: _37  and  _38
REMARK   17  A    between atoms: _38  and  _39
REMARK   18  A    between atoms: _42  and  _44
REMARK   19  A    between atoms: _44  and  _45
REMARK   20  A    between atoms: _44  and  _47
REMARK   21  A    between atoms: _47  and  _48
REMARK   22  A    between atoms: _54  and  _56
REMARK   23  A    between atoms: _56  and  _57
REMARK   24  A    between atoms: _56  and  _59
REMARK   25  A    between atoms: _62  and  _64
REMARK   26  A    between atoms: _64  and  _65
REMARK   27  A    between atoms: _64  and  _67
REMARK   28  A    between atoms: _67  and  _68
REMARK   29  A    between atoms: _73  and  _75
REMARK   30  A    between atoms: _75  and  _76
REMARK   31  A    between atoms: _75  and  _78
REMARK   32  A    between atoms: _78  and  _79
REMARK   33  A    between atoms: _79  and  _80
REMARK   34  A    between atoms: _85  and  _87
REMARK   35  A    between atoms: _87  and  _88
REMARK   36  A    between atoms: _91  and  _93
REMARK   37  A    between atoms: _93  and  _94
REMARK   38  A    between atoms: _93  and  _96
REMARK   39  A    between atoms: _99  and  _101
REMARK   40  A    between atoms: _101  and  _102
REMARK   41  A    between atoms: _105  and  _107
REMARK   42  A    between atoms: _107  and  _108
REMARK   43  A    between atoms: _107  and  _110
REMARK   44  A    between atoms: _110  and  _111
REMARK   45  A    between atoms: _114  and  _116
REMARK   46  A    between atoms: _116  and  _117
REMARK   47  A    between atoms: _116  and  _119
REMARK   48  A    between atoms: _119  and  _120
REMARK   49  A    between atoms: _120  and  _121
REMARK   50  A    between atoms: _121  and  _122
REMARK   51  A    between atoms: _122  and  _123
REMARK   52  A    between atoms: _127  and  _129
REMARK   53  A    between atoms: _129  and  _130
REMARK   54  A    between atoms: _129  and  _132
REMARK   55  A    between atoms: _132  and  _133
REMARK   56  A    between atoms: _133  and  _134
REMARK   57  A    between atoms: _134  and  _135
REMARK   58  A    between atoms: _135  and  _136
REMARK   59  A    between atoms: _140  and  _142
REMARK   60  A    between atoms: _142  and  _143
REMARK   61  A    between atoms: _142  and  _145
REMARK   62  A    between atoms: _145  and  _146
REMARK   63  A    between atoms: _152  and  _154
REMARK   64  A    between atoms: _154  and  _155
REMARK   65  A    between atoms: _154  and  _157
REMARK   66  A    between atoms: _157  and  _158
REMARK   67  A    between atoms: _161  and  _163
REMARK   68  A    between atoms: _163  and  _164
REMARK   69  A    between atoms: _163  and  _166
REMARK   70  A    between atoms: _166  and  _167
REMARK   71  A    between atoms: _167  and  _168
REMARK   72  A    between atoms: _173  and  _175
REMARK   73  A    between atoms: _175  and  _176
REMARK   74  A    between atoms: _175  and  _178
REMARK   75  A    between atoms: _178  and  _179
REMARK   76  A    between atoms: _179  and  _180
REMARK   77  A    between atoms: _183  and  _185
REMARK   78  A    between atoms: _185  and  _186
REMARK   79  A    between atoms: _189  and  _191
REMARK   80  A    between atoms: _191  and  _192
REMARK   81  A    between atoms: _191  and  _194
REMARK   82  A    between atoms: _194  and  _195
REMARK   83  A    between atoms: _198  and  _200
REMARK   84  A    between atoms: _200  and  _201
REMARK   85  A    between atoms: _200  and  _203
REMARK   86  A    between atoms: _203  and  _204
REMARK   87  A    between atoms: _207  and  _209
REMARK   88  A    between atoms: _209  and  _210
REMARK   89  A    between atoms: _209  and  _212
REMARK   90  A    between atoms: _212  and  _213
REMARK   91  A    between atoms: _213  and  _214
REMARK   92  A    between atoms: _216  and  _218
REMARK   93  A    between atoms: _218  and  _219
REMARK   94  A    between atoms: _218  and  _221
REMARK   95  A    between atoms: _221  and  _222
REMARK   96  A    between atoms: _222  and  _223
REMARK   97  A    between atoms: _223  and  _224
REMARK   98  A    between atoms: _233  and  _235
REMARK   99  A    between atoms: _235  and  _236
REMARK  100  A    between atoms: _235  and  _238
REMARK  101  A    between atoms: _238  and  _239
REMARK  102  A    between atoms: _239  and  _240
REMARK  103  A    between atoms: _245  and  _247
REMARK  104  A    between atoms: _247  and  _248
REMARK  105  A    between atoms: _247  and  _250
REMARK  106  A    between atoms: _250  and  _251
REMARK  107  A    between atoms: _257  and  _259
REMARK  108  A    between atoms: _259  and  _260
REMARK  109  A    between atoms: _259  and  _262
REMARK  110  A    between atoms: _262  and  _263
REMARK  111  A    between atoms: _266  and  _268
REMARK  112  A    between atoms: _268  and  _269
REMARK  113  A    between atoms: _268  and  _271
REMARK  114  A    between atoms: _271  and  _272
REMARK  115  A    between atoms: _277  and  _279
REMARK  116  A    between atoms: _279  and  _280
REMARK  117  A    between atoms: _279  and  _282
REMARK  118  A    between atoms: _282  and  _283
REMARK  119  A    between atoms: _286  and  _288
REMARK  120  A    between atoms: _288  and  _289
REMARK  121  A    between atoms: _288  and  _291
REMARK  122  A    between atoms: _294  and  _296
REMARK  123  A    between atoms: _296  and  _297
REMARK  124  A    between atoms: _296  and  _299
REMARK  125  A    between atoms: _299  and  _300
REMARK  126  A    between atoms: _300  and  _301
REMARK  127  A    between atoms: _301  and  _302
REMARK  128  A    between atoms: _302  and  _303
REMARK  129  A    between atoms: _307  and  _309
REMARK  130  A    between atoms: _309  and  _310
REMARK  131  A    between atoms: _309  and  _312
REMARK  132  A    between atoms: _312  and  _313
REMARK  133  A    between atoms: _316  and  _318
REMARK  134  A    between atoms: _318  and  _319
REMARK  135  A    between atoms: _318  and  _321
REMARK  136  A    between atoms: _321  and  _322
REMARK  137  A    between atoms: _325  and  _327
REMARK  138  A    between atoms: _327  and  _328
REMARK  139  A    between atoms: _327  and  _330
REMARK  140  A    between atoms: _330  and  _331
REMARK  141  A    between atoms: _334  and  _336
REMARK  142  A    between atoms: _336  and  _337
REMARK  143  A    between atoms: _336  and  _339
REMARK  144  A    between atoms: _339  and  _340
REMARK  145  A    between atoms: _340  and  _341
REMARK  146  A    between atoms: _343  and  _345
REMARK  147  A    between atoms: _345  and  _346
REMARK  148  A    between atoms: _345  and  _348
REMARK  149  A    between atoms: _348  and  _349
REMARK  150  A    between atoms: _349  and  _350
REMARK  151  A    between atoms: _353  and  _355
REMARK  152  A    between atoms: _355  and  _356
REMARK  153  A    between atoms: _355  and  _358
REMARK  154  A    between atoms: _358  and  _359
REMARK  155  A    between atoms: _362  and  _364
REMARK  156  A    between atoms: _364  and  _365
REMARK  157  A    between atoms: _364  and  _367
REMARK  158  A    between atoms: _369  and  _371
REMARK  159  A    between atoms: _371  and  _372
REMARK  160  A    between atoms: _371  and  _374
REMARK  161  A    between atoms: _374  and  _375
REMARK  162  A    between atoms: _378  and  _380
REMARK  163  A    between atoms: _380  and  _381
REMARK  164  A    between atoms: _380  and  _383
REMARK  165  A    between atoms: _383  and  _384
REMARK  166  A    between atoms: _387  and  _389
REMARK  167  A    between atoms: _389  and  _390
REMARK  168  A    between atoms: _392  and  _394
REMARK  169  A    between atoms: _394  and  _395
REMARK  170  A    between atoms: _394  and  _397
REMARK  171  A    between atoms: _397  and  _398
REMARK  172  A    between atoms: _398  and  _399
REMARK  173  A    between atoms: _402  and  _404
REMARK  174  A    between atoms: _404  and  _405
REMARK  175  A    between atoms: _408  and  _410
REMARK  176  A    between atoms: _410  and  _411
REMARK  177  A    between atoms: _410  and  _413
REMARK  178  A    between atoms: _413  and  _414
REMARK  179  A    between atoms: _417  and  _419
REMARK  180  A    between atoms: _419  and  _420
REMARK  181  A    between atoms: _419  and  _422
REMARK  182  A    between atoms: _422  and  _423
REMARK  183  A    between atoms: _428  and  _429
REMARK  184  A    between atoms: _431  and  _433
REMARK  185  A    between atoms: _433  and  _434
REMARK  186  A    between atoms: _433  and  _436
REMARK  187  A    between atoms: _436  and  _437
REMARK  188  A    between atoms: _440  and  _442
REMARK  189  A    between atoms: _442  and  _443
REMARK  190  A    between atoms: _442  and  _445
REMARK  191  A    between atoms: _445  and  _446
REMARK  192  A    between atoms: _452  and  _454
REMARK  193  A    between atoms: _454  and  _455
REMARK  194  A    between atoms: _454  and  _457
REMARK  195  A    between atoms: _460  and  _462
REMARK  196  A    between atoms: _462  and  _463
REMARK  197  A    between atoms: _462  and  _465
REMARK  198  A    between atoms: _465  and  _466
REMARK  199  A    between atoms: _471  and  _473
REMARK  200  A    between atoms: _473  and  _474
REMARK  201  A    between atoms: _473  and  _476
REMARK  202  A    between atoms: _476  and  _477
REMARK  203  A    between atoms: _477  and  _478
REMARK  204  A    between atoms: _478  and  _479
REMARK  205  A    between atoms: _488  and  _490
REMARK  206  A    between atoms: _490  and  _491
REMARK  207  A    between atoms: _490  and  _493
REMARK  208  A    between atoms: _493  and  _494
REMARK  209  A    between atoms: _497  and  _499
REMARK  210  A    between atoms: _499  and  _500
REMARK  211  A    between atoms: _499  and  _502
REMARK  212  A    between atoms: _502  and  _503
REMARK  213  A    between atoms: _506  and  _508
REMARK  214  A    between atoms: _508  and  _509
REMARK  215  A    between atoms: _508  and  _511
REMARK  216  A    between atoms: _511  and  _512
REMARK  217  A    between atoms: _517  and  _519
REMARK  218  A    between atoms: _519  and  _520
REMARK  219  A    between atoms: _519  and  _522
REMARK  220  A    between atoms: _525  and  _527
REMARK  221  A    between atoms: _527  and  _528
REMARK  222  A    between atoms: _527  and  _530
REMARK  223  A    between atoms: _530  and  _531
REMARK  224  A    between atoms: _534  and  _536
REMARK  225  A    between atoms: _536  and  _537
REMARK  226  A    between atoms: _536  and  _539
REMARK  227  A    between atoms: _542  and  _544
REMARK  228  A    between atoms: _544  and  _545
REMARK  229  A    between atoms: _544  and  _547
REMARK  230  A    between atoms: _547  and  _548
REMARK  231  A    between atoms: _550  and  _552
REMARK  232  A    between atoms: _552  and  _553
REMARK  233  A    between atoms: _552  and  _555
REMARK  234  A    between atoms: _555  and  _556
REMARK  235  A    between atoms: _556  and  _557
REMARK  236  A    between atoms: _557  and  _558
REMARK  237  A    between atoms: _558  and  _559
REMARK  238  A    between atoms: _563  and  _565
REMARK  239  A    between atoms: _565  and  _566
REMARK  240  A    between atoms: _565  and  _568
REMARK  241  A    between atoms: _568  and  _569
REMARK  242  A    between atoms: _572  and  _574
REMARK  243  A    between atoms: _574  and  _575
REMARK  244  A    between atoms: _577  and  _579
REMARK  245  A    between atoms: _579  and  _580
REMARK  246  A    between atoms: _579  and  _582
REMARK  247  A    between atoms: _582  and  _583
REMARK  248  A    between atoms: _586  and  _588
REMARK  249  A    between atoms: _588  and  _589
REMARK  250  A    between atoms: _588  and  _591
REMARK  251  A    between atoms: _591  and  _592
REMARK  252  A    between atoms: _598  and  _600
REMARK  253  A    between atoms: _600  and  _601
REMARK  254  A    between atoms: _603  and  _605
REMARK  255  A    between atoms: _605  and  _606
REMARK  256  A    between atoms: _605  and  _608
REMARK  257  A    between atoms: _608  and  _609
REMARK  258  A    between atoms: _612  and  _614
REMARK  259  A    between atoms: _614  and  _615
REMARK  260  A    between atoms: _614  and  _617
REMARK  261  A    between atoms: _617  and  _618
REMARK  262  A    between atoms: _620  and  _622
REMARK  263  A    between atoms: _622  and  _623
REMARK  264  A    between atoms: _622  and  _625
REMARK  265  A    between atoms: _625  and  _626
REMARK  266  A    between atoms: _626  and  _627
REMARK  267  A    between atoms: _627  and  _628
REMARK  268  A    between atoms: _637  and  _639
REMARK  269  A    between atoms: _639  and  _640
REMARK  270  A    between atoms: _639  and  _642
REMARK  271  A    between atoms: _642  and  _643
REMARK  272  A    between atoms: _648  and  _649
REMARK  273  A    between atoms: _651  and  _653
REMARK  274  A    between atoms: _653  and  _654
REMARK  275  A    between atoms: _653  and  _656
REMARK  276  A    between atoms: _656  and  _657
REMARK  277  A    between atoms: _657  and  _658
REMARK  278  A    between atoms: _660  and  _662
REMARK  279  A    between atoms: _662  and  _663
REMARK  280  A    between atoms: _662  and  _665
REMARK  281  A    between atoms: _665  and  _666
REMARK                            x       y       z     vdW  Elec       q    Type
REMARK                         _______ _______ _______ _____ _____    ______ ____
ROOT
ATOM      1  O   HOH     1     -32.584 -36.388  10.822  0.00  0.00    +0.000 OA
ENDROOT
TORSDOF 0
REMARK  Name = ../refined-set-2016/4k9y/4k9y_pocket.pdb
REMARK  281 active torsions:
REMARK  status: ('A' for Active; 'I' for Inactive)
REMARK    1  A    between atoms: _1  and  _3
REMARK    2  A    between atoms: _3  and  _4
REMARK    3  A    between atoms: _3  and  _6
REMARK    4  A    between atoms: _6  and  _7
REMARK    5  A    between atoms: _7  and  _8
REMARK    6  A    between atoms: _8  and  _9
REMARK    7  A    between atoms: _18  and  _20
REMARK    8  A    between atoms: _20  and  _21
REMARK    9  A    between atoms: _20  and  _23
REMARK   10  A    between atoms: _23  and  _24
REMARK   11  A    between atoms: _27  and  _29
REMARK   12  A    between atoms: _29  and  _30
REMARK   13  A    between atoms: _32  and  _34
REMARK   14  A    between atoms: _34  and  _35
REMARK   15  A    between atoms: _34  and  _37
REMARK   16  A    between atoms: _37  and  _38
REMARK   17  A    between atoms: _38  and  _39
REMARK   18  A    between atoms: _42  and  _44
REMARK   19  A    between atoms: _44  and  _45
REMARK   20  A    between atoms: _44  and  _47
REMARK   21  A    between atoms: _47  and  _48
REMARK   22  A    between atoms: _54  and  _56
REMARK   23  A    between atoms: _56  and  _57
REMARK   24  A    between atoms: _56  and  _59
REMARK   25  A    between atoms: _62  and  _64
REMARK   26  A    between atoms: _64  and  _65
REMARK   27  A    between atoms: _64  and  _67
REMARK   28  A    between atoms: _67  and  _68
REMARK   29  A    between atoms: _73  and  _75
REMARK   30  A    between atoms: _75  and  _76
REMARK   31  A    between atoms: _75  and  _78
REMARK   32  A    between atoms: _78  and  _79
REMARK   33  A    between atoms: _79  and  _80
REMARK   34  A    between atoms: _85  and  _87
REMARK   35  A    between atoms: _87  and  _88
REMARK   36  A    between atoms: _91  and  _93
REMARK   37  A    between atoms: _93  and  _94
REMARK   38  A    between atoms: _93  and  _96
REMARK   39  A    between atoms: _99  and  _101
REMARK   40  A    between atoms: _101  and  _102
REMARK   41  A    between atoms: _105  and  _107
REMARK   42  A    between atoms: _107  and  _108
REMARK   43  A    between atoms: _107  and  _110
REMARK   44  A    between atoms: _110  and  _111
REMARK   45  A    between atoms: _114  and  _116
REMARK   46  A    between atoms: _116  and  _117
REMARK   47  A    between atoms: _116  and  _119
REMARK   48  A    between atoms: _119  and  _120
REMARK   49  A    between atoms: _120  and  _121
REMARK   50  A    between atoms: _121  and  _122
REMARK   51  A    between atoms: _122  and  _123
REMARK   52  A    between atoms: _127  and  _129
REMARK   53  A    between atoms: _129  and  _130
REMARK   54  A    between atoms: _129  and  _132
REMARK   55  A    between atoms: _132  and  _133
REMARK   56  A    between atoms: _133  and  _134
REMARK   57  A    between atoms: _134  and  _135
REMARK   58  A    between atoms: _135  and  _136
REMARK   59  A    between atoms: _140  and  _142
REMARK   60  A    between atoms: _142  and  _143
REMARK   61  A    between atoms: _142  and  _145
REMARK   62  A    between atoms: _145  and  _146
REMARK   63  A    between atoms: _152  and  _154
REMARK   64  A    between atoms: _154  and  _155
REMARK   65  A    between atoms: _154  and  _157
REMARK   66  A    between atoms: _157  and  _158
REMARK   67  A    between atoms: _161  and  _163
REMARK   68  A    between atoms: _163  and  _164
REMARK   69  A    between atoms: _163  and  _166
REMARK   70  A    between atoms: _166  and  _167
REMARK   71  A    between atoms: _167  and  _168
REMARK   72  A    between atoms: _173  and  _175
REMARK   73  A    between atoms: _175  and  _176
REMARK   74  A    between atoms: _175  and  _178
REMARK   75  A    between atoms: _178  and  _179
REMARK   76  A    between atoms: _179  and  _180
REMARK   77  A    between atoms: _183  and  _185
REMARK   78  A    between atoms: _185  and  _186
REMARK   79  A    between atoms: _189  and  _191
REMARK   80  A    between atoms: _191  and  _192
REMARK   81  A    between atoms: _191  and  _194
REMARK   82  A    between atoms: _194  and  _195
REMARK   83  A    between atoms: _198  and  _200
REMARK   84  A    between atoms: _200  and  _201
REMARK   85  A    between atoms: _200  and  _203
REMARK   86  A    between atoms: _203  and  _204
REMARK   87  A    between atoms: _207  and  _209
REMARK   88  A    between atoms: _209  and  _210
REMARK   89  A    between atoms: _209  and  _212
REMARK   90  A    between atoms: _212  and  _213
REMARK   91  A    between atoms: _213  and  _214
REMARK   92  A    between atoms: _216  and  _218
REMARK   93  A    between atoms: _218  and  _219
REMARK   94  A    between atoms: _218  and  _221
REMARK   95  A    between atoms: _221  and  _222
REMARK   96  A    between atoms: _222  and  _223
REMARK   97  A    between atoms: _223  and  _224
REMARK   98  A    between atoms: _233  and  _235
REMARK   99  A    between atoms: _235  and  _236
REMARK  100  A    between atoms: _235  and  _238
REMARK  101  A    between atoms: _238  and  _239
REMARK  102  A    between atoms: _239  and  _240
REMARK  103  A    between atoms: _245  and  _247
REMARK  104  A    between atoms: _247  and  _248
REMARK  105  A    between atoms: _247  and  _250
REMARK  106  A    between atoms: _250  and  _251
REMARK  107  A    between atoms: _257  and  _259
REMARK  108  A    between atoms: _259  and  _260
REMARK  109  A    between atoms: _259  and  _262
REMARK  110  A    between atoms: _262  and  _263
REMARK  111  A    between atoms: _266  and  _268
REMARK  112  A    between atoms: _268  and  _269
REMARK  113  A    between atoms: _268  and  _271
REMARK  114  A    between atoms: _271  and  _272
REMARK  115  A    between atoms: _277  and  _279
REMARK  116  A    between atoms: _279  and  _280
REMARK  117  A    between atoms: _279  and  _282
REMARK  118  A    between atoms: _282  and  _283
REMARK  119  A    between atoms: _286  and  _288
REMARK  120  A    between atoms: _288  and  _289
REMARK  121  A    between atoms: _288  and  _291
REMARK  122  A    between atoms: _294  and  _296
REMARK  123  A    between atoms: _296  and  _297
REMARK  124  A    between atoms: _296  and  _299
REMARK  125  A    between atoms: _299  and  _300
REMARK  126  A    between atoms: _300  and  _301
REMARK  127  A    between atoms: _301  and  _302
REMARK  128  A    between atoms: _302  and  _303
REMARK  129  A    between atoms: _307  and  _309
REMARK  130  A    between atoms: _309  and  _310
REMARK  131  A    between atoms: _309  and  _312
REMARK  132  A    between atoms: _312  and  _313
REMARK  133  A    between atoms: _316  and  _318
REMARK  134  A    between atoms: _318  and  _319
REMARK  135  A    between atoms: _318  and  _321
REMARK  136  A    between atoms: _321  and  _322
REMARK  137  A    between atoms: _325  and  _327
REMARK  138  A    between atoms: _327  and  _328
REMARK  139  A    between atoms: _327  and  _330
REMARK  140  A    between atoms: _330  and  _331
REMARK  141  A    between atoms: _334  and  _336
REMARK  142  A    between atoms: _336  and  _337
REMARK  143  A    between atoms: _336  and  _339
REMARK  144  A    between atoms: _339  and  _340
REMARK  145  A    between atoms: _340  and  _341
REMARK  146  A    between atoms: _343  and  _345
REMARK  147  A    between atoms: _345  and  _346
REMARK  148  A    between atoms: _345  and  _348
REMARK  149  A    between atoms: _348  and  _349
REMARK  150  A    between atoms: _349  and  _350
REMARK  151  A    between atoms: _353  and  _355
REMARK  152  A    between atoms: _355  and  _356
REMARK  153  A    between atoms: _355  and  _358
REMARK  154  A    between atoms: _358  and  _359
REMARK  155  A    between atoms: _362  and  _364
REMARK  156  A    between atoms: _364  and  _365
REMARK  157  A    between atoms: _364  and  _367
REMARK  158  A    between atoms: _369  and  _371
REMARK  159  A    between atoms: _371  and  _372
REMARK  160  A    between atoms: _371  and  _374
REMARK  161  A    between atoms: _374  and  _375
REMARK  162  A    between atoms: _378  and  _380
REMARK  163  A    between atoms: _380  and  _381
REMARK  164  A    between atoms: _380  and  _383
REMARK  165  A    between atoms: _383  and  _384
REMARK  166  A    between atoms: _387  and  _389
REMARK  167  A    between atoms: _389  and  _390
REMARK  168  A    between atoms: _392  and  _394
REMARK  169  A    between atoms: _394  and  _395
REMARK  170  A    between atoms: _394  and  _397
REMARK  171  A    between atoms: _397  and  _398
REMARK  172  A    between atoms: _398  and  _399
REMARK  173  A    between atoms: _402  and  _404
REMARK  174  A    between atoms: _404  and  _405
REMARK  175  A    between atoms: _408  and  _410
REMARK  176  A    between atoms: _410  and  _411
REMARK  177  A    between atoms: _410  and  _413
REMARK  178  A    between atoms: _413  and  _414
REMARK  179  A    between atoms: _417  and  _419
REMARK  180  A    between atoms: _419  and  _420
REMARK  181  A    between atoms: _419  and  _422
REMARK  182  A    between atoms: _422  and  _423
REMARK  183  A    between atoms: _428  and  _429
REMARK  184  A    between atoms: _431  and  _433
REMARK  185  A    between atoms: _433  and  _434
REMARK  186  A    between atoms: _433  and  _436
REMARK  187  A    between atoms: _436  and  _437
REMARK  188  A    between atoms: _440  and  _442
REMARK  189  A    between atoms: _442  and  _443
REMARK  190  A    between atoms: _442  and  _445
REMARK  191  A    between atoms: _445  and  _446
REMARK  192  A    between atoms: _452  and  _454
REMARK  193  A    between atoms: _454  and  _455
REMARK  194  A    between atoms: _454  and  _457
REMARK  195  A    between atoms: _460  and  _462
REMARK  196  A    between atoms: _462  and  _463
REMARK  197  A    between atoms: _462  and  _465
REMARK  198  A    between atoms: _465  and  _466
REMARK  199  A    between atoms: _471  and  _473
REMARK  200  A    between atoms: _473  and  _474
REMARK  201  A    between atoms: _473  and  _476
REMARK  202  A    between atoms: _476  and  _477
REMARK  203  A    between atoms: _477  and  _478
REMARK  204  A    between atoms: _478  and  _479
REMARK  205  A    between atoms: _488  and  _490
REMARK  206  A    between atoms: _490  and  _491
REMARK  207  A    between atoms: _490  and  _493
REMARK  208  A    between atoms: _493  and  _494
REMARK  209  A    between atoms: _497  and  _499
REMARK  210  A    between atoms: _499  and  _500
REMARK  211  A    between atoms: _499  and  _502
REMARK  212  A    between atoms: _502  and  _503
REMARK  213  A    between atoms: _506  and  _508
REMARK  214  A    between atoms: _508  and  _509
REMARK  215  A    between atoms: _508  and  _511
REMARK  216  A    between atoms: _511  and  _512
REMARK  217  A    between atoms: _517  and  _519
REMARK  218  A    between atoms: _519  and  _520
REMARK  219  A    between atoms: _519  and  _522
REMARK  220  A    between atoms: _525  and  _527
REMARK  221  A    between atoms: _527  and  _528
REMARK  222  A    between atoms: _527  and  _530
REMARK  223  A    between atoms: _530  and  _531
REMARK  224  A    between atoms: _534  and  _536
REMARK  225  A    between atoms: _536  and  _537
REMARK  226  A    between atoms: _536  and  _539
REMARK  227  A    between atoms: _542  and  _544
REMARK  228  A    between atoms: _544  and  _545
REMARK  229  A    between atoms: _544  and  _547
REMARK  230  A    between atoms: _547  and  _548
REMARK  231  A    between atoms: _550  and  _552
REMARK  232  A    between atoms: _552  and  _553
REMARK  233  A    between atoms: _552  and  _555
REMARK  234  A    between atoms: _555  and  _556
REMARK  235  A    between atoms: _556  and  _557
REMARK  236  A    between atoms: _557  and  _558
REMARK  237  A    between atoms: _558  and  _559
REMARK  238  A    between atoms: _563  and  _565
REMARK  239  A    between atoms: _565  and  _566
REMARK  240  A    between atoms: _565  and  _568
REMARK  241  A    between atoms: _568  and  _569
REMARK  242  A    between atoms: _572  and  _574
REMARK  243  A    between atoms: _574  and  _575
REMARK  244  A    between atoms: _577  and  _579
REMARK  245  A    between atoms: _579  and  _580
REMARK  246  A    between atoms: _579  and  _582
REMARK  247  A    between atoms: _582  and  _583
REMARK  248  A    between atoms: _586  and  _588
REMARK  249  A    between atoms: _588  and  _589
REMARK  250  A    between atoms: _588  and  _591
REMARK  251  A    between atoms: _591  and  _592
REMARK  252  A    between atoms: _598  and  _600
REMARK  253  A    between atoms: _600  and  _601
REMARK  254  A    between atoms: _603  and  _605
REMARK  255  A    between atoms: _605  and  _606
REMARK  256  A    between atoms: _605  and  _608
REMARK  257  A    between atoms: _608  and  _609
REMARK  258  A    between atoms: _612  and  _614
REMARK  259  A    between atoms: _614  and  _615
REMARK  260  A    between atoms: _614  and  _617
REMARK  261  A    between atoms: _617  and  _618
REMARK  262  A    between atoms: _620  and  _622
REMARK  263  A    between atoms: _622  and  _623
REMARK  264  A    between atoms: _622  and  _625
REMARK  265  A    between atoms: _625  and  _626
REMARK  266  A    between atoms: _626  and  _627
REMARK  267  A    between atoms: _627  and  _628
REMARK  268  A    between atoms: _637  and  _639
REMARK  269  A    between atoms: _639  and  _640
REMARK  270  A    between atoms: _639  and  _642
REMARK  271  A    between atoms: _642  and  _643
REMARK  272  A    between atoms: _648  and  _649
REMARK  273  A    between atoms: _651  and  _653
REMARK  274  A    between atoms: _653  and  _654
REMARK  275  A    between atoms: _653  and  _656
REMARK  276  A    between atoms: _656  and  _657
REMARK  277  A    between atoms: _657  and  _658
REMARK  278  A    between atoms: _660  and  _662
REMARK  279  A    between atoms: _662  and  _663
REMARK  280  A    between atoms: _662  and  _665
REMARK  281  A    between atoms: _665  and  _666
REMARK                            x       y       z     vdW  Elec       q    Type
REMARK                         _______ _______ _______ _____ _____    ______ ____
ROOT
ATOM      1  O   HOH     1     -25.944 -22.881   5.979  0.00  0.00    +0.000 OA
ENDROOT
TORSDOF 0
REMARK  Name = ../refined-set-2016/4k9y/4k9y_pocket.pdb
REMARK  281 active torsions:
REMARK  status: ('A' for Active; 'I' for Inactive)
REMARK    1  A    between atoms: _1  and  _3
REMARK    2  A    between atoms: _3  and  _4
REMARK    3  A    between atoms: _3  and  _6
REMARK    4  A    between atoms: _6  and  _7
REMARK    5  A    between atoms: _7  and  _8
REMARK    6  A    between atoms: _8  and  _9
REMARK    7  A    between atoms: _18  and  _20
REMARK    8  A    between atoms: _20  and  _21
REMARK    9  A    between atoms: _20  and  _23
REMARK   10  A    between atoms: _23  and  _24
REMARK   11  A    between atoms: _27  and  _29
REMARK   12  A    between atoms: _29  and  _30
REMARK   13  A    between atoms: _32  and  _34
REMARK   14  A    between atoms: _34  and  _35
REMARK   15  A    between atoms: _34  and  _37
REMARK   16  A    between atoms: _37  and  _38
REMARK   17  A    between atoms: _38  and  _39
REMARK   18  A    between atoms: _42  and  _44
REMARK   19  A    between atoms: _44  and  _45
REMARK   20  A    between atoms: _44  and  _47
REMARK   21  A    between atoms: _47  and  _48
REMARK   22  A    between atoms: _54  and  _56
REMARK   23  A    between atoms: _56  and  _57
REMARK   24  A    between atoms: _56  and  _59
REMARK   25  A    between atoms: _62  and  _64
REMARK   26  A    between atoms: _64  and  _65
REMARK   27  A    between atoms: _64  and  _67
REMARK   28  A    between atoms: _67  and  _68
REMARK   29  A    between atoms: _73  and  _75
REMARK   30  A    between atoms: _75  and  _76
REMARK   31  A    between atoms: _75  and  _78
REMARK   32  A    between atoms: _78  and  _79
REMARK   33  A    between atoms: _79  and  _80
REMARK   34  A    between atoms: _85  and  _87
REMARK   35  A    between atoms: _87  and  _88
REMARK   36  A    between atoms: _91  and  _93
REMARK   37  A    between atoms: _93  and  _94
REMARK   38  A    between atoms: _93  and  _96
REMARK   39  A    between atoms: _99  and  _101
REMARK   40  A    between atoms: _101  and  _102
REMARK   41  A    between atoms: _105  and  _107
REMARK   42  A    between atoms: _107  and  _108
REMARK   43  A    between atoms: _107  and  _110
REMARK   44  A    between atoms: _110  and  _111
REMARK   45  A    between atoms: _114  and  _116
REMARK   46  A    between atoms: _116  and  _117
REMARK   47  A    between atoms: _116  and  _119
REMARK   48  A    between atoms: _119  and  _120
REMARK   49  A    between atoms: _120  and  _121
REMARK   50  A    between atoms: _121  and  _122
REMARK   51  A    between atoms: _122  and  _123
REMARK   52  A    between atoms: _127  and  _129
REMARK   53  A    between atoms: _129  and  _130
REMARK   54  A    between atoms: _129  and  _132
REMARK   55  A    between atoms: _132  and  _133
REMARK   56  A    between atoms: _133  and  _134
REMARK   57  A    between atoms: _134  and  _135
REMARK   58  A    between atoms: _135  and  _136
REMARK   59  A    between atoms: _140  and  _142
REMARK   60  A    between atoms: _142  and  _143
REMARK   61  A    between atoms: _142  and  _145
REMARK   62  A    between atoms: _145  and  _146
REMARK   63  A    between atoms: _152  and  _154
REMARK   64  A    between atoms: _154  and  _155
REMARK   65  A    between atoms: _154  and  _157
REMARK   66  A    between atoms: _157  and  _158
REMARK   67  A    between atoms: _161  and  _163
REMARK   68  A    between atoms: _163  and  _164
REMARK   69  A    between atoms: _163  and  _166
REMARK   70  A    between atoms: _166  and  _167
REMARK   71  A    between atoms: _167  and  _168
REMARK   72  A    between atoms: _173  and  _175
REMARK   73  A    between atoms: _175  and  _176
REMARK   74  A    between atoms: _175  and  _178
REMARK   75  A    between atoms: _178  and  _179
REMARK   76  A    between atoms: _179  and  _180
REMARK   77  A    between atoms: _183  and  _185
REMARK   78  A    between atoms: _185  and  _186
REMARK   79  A    between atoms: _189  and  _191
REMARK   80  A    between atoms: _191  and  _192
REMARK   81  A    between atoms: _191  and  _194
REMARK   82  A    between atoms: _194  and  _195
REMARK   83  A    between atoms: _198  and  _200
REMARK   84  A    between atoms: _200  and  _201
REMARK   85  A    between atoms: _200  and  _203
REMARK   86  A    between atoms: _203  and  _204
REMARK   87  A    between atoms: _207  and  _209
REMARK   88  A    between atoms: _209  and  _210
REMARK   89  A    between atoms: _209  and  _212
REMARK   90  A    between atoms: _212  and  _213
REMARK   91  A    between atoms: _213  and  _214
REMARK   92  A    between atoms: _216  and  _218
REMARK   93  A    between atoms: _218  and  _219
REMARK   94  A    between atoms: _218  and  _221
REMARK   95  A    between atoms: _221  and  _222
REMARK   96  A    between atoms: _222  and  _223
REMARK   97  A    between atoms: _223  and  _224
REMARK   98  A    between atoms: _233  and  _235
REMARK   99  A    between atoms: _235  and  _236
REMARK  100  A    between atoms: _235  and  _238
REMARK  101  A    between atoms: _238  and  _239
REMARK  102  A    between atoms: _239  and  _240
REMARK  103  A    between atoms: _245  and  _247
REMARK  104  A    between atoms: _247  and  _248
REMARK  105  A    between atoms: _247  and  _250
REMARK  106  A    between atoms: _250  and  _251
REMARK  107  A    between atoms: _257  and  _259
REMARK  108  A    between atoms: _259  and  _260
REMARK  109  A    between atoms: _259  and  _262
REMARK  110  A    between atoms: _262  and  _263
REMARK  111  A    between atoms: _266  and  _268
REMARK  112  A    between atoms: _268  and  _269
REMARK  113  A    between atoms: _268  and  _271
REMARK  114  A    between atoms: _271  and  _272
REMARK  115  A    between atoms: _277  and  _279
REMARK  116  A    between atoms: _279  and  _280
REMARK  117  A    between atoms: _279  and  _282
REMARK  118  A    between atoms: _282  and  _283
REMARK  119  A    between atoms: _286  and  _288
REMARK  120  A    between atoms: _288  and  _289
REMARK  121  A    between atoms: _288  and  _291
REMARK  122  A    between atoms: _294  and  _296
REMARK  123  A    between atoms: _296  and  _297
REMARK  124  A    between atoms: _296  and  _299
REMARK  125  A    between atoms: _299  and  _300
REMARK  126  A    between atoms: _300  and  _301
REMARK  127  A    between atoms: _301  and  _302
REMARK  128  A    between atoms: _302  and  _303
REMARK  129  A    between atoms: _307  and  _309
REMARK  130  A    between atoms: _309  and  _310
REMARK  131  A    between atoms: _309  and  _312
REMARK  132  A    between atoms: _312  and  _313
REMARK  133  A    between atoms: _316  and  _318
REMARK  134  A    between atoms: _318  and  _319
REMARK  135  A    between atoms: _318  and  _321
REMARK  136  A    between atoms: _321  and  _322
REMARK  137  A    between atoms: _325  and  _327
REMARK  138  A    between atoms: _327  and  _328
REMARK  139  A    between atoms: _327  and  _330
REMARK  140  A    between atoms: _330  and  _331
REMARK  141  A    between atoms: _334  and  _336
REMARK  142  A    between atoms: _336  and  _337
REMARK  143  A    between atoms: _336  and  _339
REMARK  144  A    between atoms: _339  and  _340
REMARK  145  A    between atoms: _340  and  _341
REMARK  146  A    between atoms: _343  and  _345
REMARK  147  A    between atoms: _345  and  _346
REMARK  148  A    between atoms: _345  and  _348
REMARK  149  A    between atoms: _348  and  _349
REMARK  150  A    between atoms: _349  and  _350
REMARK  151  A    between atoms: _353  and  _355
REMARK  152  A    between atoms: _355  and  _356
REMARK  153  A    between atoms: _355  and  _358
REMARK  154  A    between atoms: _358  and  _359
REMARK  155  A    between atoms: _362  and  _364
REMARK  156  A    between atoms: _364  and  _365
REMARK  157  A    between atoms: _364  and  _367
REMARK  158  A    between atoms: _369  and  _371
REMARK  159  A    between atoms: _371  and  _372
REMARK  160  A    between atoms: _371  and  _374
REMARK  161  A    between atoms: _374  and  _375
REMARK  162  A    between atoms: _378  and  _380
REMARK  163  A    between atoms: _380  and  _381
REMARK  164  A    between atoms: _380  and  _383
REMARK  165  A    between atoms: _383  and  _384
REMARK  166  A    between atoms: _387  and  _389
REMARK  167  A    between atoms: _389  and  _390
REMARK  168  A    between atoms: _392  and  _394
REMARK  169  A    between atoms: _394  and  _395
REMARK  170  A    between atoms: _394  and  _397
REMARK  171  A    between atoms: _397  and  _398
REMARK  172  A    between atoms: _398  and  _399
REMARK  173  A    between atoms: _402  and  _404
REMARK  174  A    between atoms: _404  and  _405
REMARK  175  A    between atoms: _408  and  _410
REMARK  176  A    between atoms: _410  and  _411
REMARK  177  A    between atoms: _410  and  _413
REMARK  178  A    between atoms: _413  and  _414
REMARK  179  A    between atoms: _417  and  _419
REMARK  180  A    between atoms: _419  and  _420
REMARK  181  A    between atoms: _419  and  _422
REMARK  182  A    between atoms: _422  and  _423
REMARK  183  A    between atoms: _428  and  _429
REMARK  184  A    between atoms: _431  and  _433
REMARK  185  A    between atoms: _433  and  _434
REMARK  186  A    between atoms: _433  and  _436
REMARK  187  A    between atoms: _436  and  _437
REMARK  188  A    between atoms: _440  and  _442
REMARK  189  A    between atoms: _442  and  _443
REMARK  190  A    between atoms: _442  and  _445
REMARK  191  A    between atoms: _445  and  _446
REMARK  192  A    between atoms: _452  and  _454
REMARK  193  A    between atoms: _454  and  _455
REMARK  194  A    between atoms: _454  and  _457
REMARK  195  A    between atoms: _460  and  _462
REMARK  196  A    between atoms: _462  and  _463
REMARK  197  A    between atoms: _462  and  _465
REMARK  198  A    between atoms: _465  and  _466
REMARK  199  A    between atoms: _471  and  _473
REMARK  200  A    between atoms: _473  and  _474
REMARK  201  A    between atoms: _473  and  _476
REMARK  202  A    between atoms: _476  and  _477
REMARK  203  A    between atoms: _477  and  _478
REMARK  204  A    between atoms: _478  and  _479
REMARK  205  A    between atoms: _488  and  _490
REMARK  206  A    between atoms: _490  and  _491
REMARK  207  A    between atoms: _490  and  _493
REMARK  208  A    between atoms: _493  and  _494
REMARK  209  A    between atoms: _497  and  _499
REMARK  210  A    between atoms: _499  and  _500
REMARK  211  A    between atoms: _499  and  _502
REMARK  212  A    between atoms: _502  and  _503
REMARK  213  A    between atoms: _506  and  _508
REMARK  214  A    between atoms: _508  and  _509
REMARK  215  A    between atoms: _508  and  _511
REMARK  216  A    between atoms: _511  and  _512
REMARK  217  A    between atoms: _517  and  _519
REMARK  218  A    between atoms: _519  and  _520
REMARK  219  A    between atoms: _519  and  _522
REMARK  220  A    between atoms: _525  and  _527
REMARK  221  A    between atoms: _527  and  _528
REMARK  222  A    between atoms: _527  and  _530
REMARK  223  A    between atoms: _530  and  _531
REMARK  224  A    between atoms: _534  and  _536
REMARK  225  A    between atoms: _536  and  _537
REMARK  226  A    between atoms: _536  and  _539
REMARK  227  A    between atoms: _542  and  _544
REMARK  228  A    between atoms: _544  and  _545
REMARK  229  A    between atoms: _544  and  _547
REMARK  230  A    between atoms: _547  and  _548
REMARK  231  A    between atoms: _550  and  _552
REMARK  232  A    between atoms: _552  and  _553
REMARK  233  A    between atoms: _552  and  _555
REMARK  234  A    between atoms: _555  and  _556
REMARK  235  A    between atoms: _556  and  _557
REMARK  236  A    between atoms: _557  and  _558
REMARK  237  A    between atoms: _558  and  _559
REMARK  238  A    between atoms: _563  and  _565
REMARK  239  A    between atoms: _565  and  _566
REMARK  240  A    between atoms: _565  and  _568
REMARK  241  A    between atoms: _568  and  _569
REMARK  242  A    between atoms: _572  and  _574
REMARK  243  A    between atoms: _574  and  _575
REMARK  244  A    between atoms: _577  and  _579
REMARK  245  A    between atoms: _579  and  _580
REMARK  246  A    between atoms: _579  and  _582
REMARK  247  A    between atoms: _582  and  _583
REMARK  248  A    between atoms: _586  and  _588
REMARK  249  A    between atoms: _588  and  _589
REMARK  250  A    between atoms: _588  and  _591
REMARK  251  A    between atoms: _591  and  _592
REMARK  252  A    between atoms: _598  and  _600
REMARK  253  A    between atoms: _600  and  _601
REMARK  254  A    between atoms: _603  and  _605
REMARK  255  A    between atoms: _605  and  _606
REMARK  256  A    between atoms: _605  and  _608
REMARK  257  A    between atoms: _608  and  _609
REMARK  258  A    between atoms: _612  and  _614
REMARK  259  A    between atoms: _614  and  _615
REMARK  260  A    between atoms: _614  and  _617
REMARK  261  A    between atoms: _617  and  _618
REMARK  262  A    between atoms: _620  and  _622
REMARK  263  A    between atoms: _622  and  _623
REMARK  264  A    between atoms: _622  and  _625
REMARK  265  A    between atoms: _625  and  _626
REMARK  266  A    between atoms: _626  and  _627
REMARK  267  A    between atoms: _627  and  _628
REMARK  268  A    between atoms: _637  and  _639
REMARK  269  A    between atoms: _639  and  _640
REMARK  270  A    between atoms: _639  and  _642
REMARK  271  A    between atoms: _642  and  _643
REMARK  272  A    between atoms: _648  and  _649
REMARK  273  A    between atoms: _651  and  _653
REMARK  274  A    between atoms: _653  and  _654
REMARK  275  A    between atoms: _653  and  _656
REMARK  276  A    between atoms: _656  and  _657
REMARK  277  A    between atoms: _657  and  _658
REMARK  278  A    between atoms: _660  and  _662
REMARK  279  A    between atoms: _662  and  _663
REMARK  280  A    between atoms: _662  and  _665
REMARK  281  A    between atoms: _665  and  _666
REMARK                            x       y       z     vdW  Elec       q    Type
REMARK                         _______ _______ _______ _____ _____    ______ ____
ROOT
ATOM      1  O   HOH     1     -30.056 -31.379  12.410  0.00  0.00    +0.000 OA
ENDROOT
TORSDOF 0
REMARK  Name = ../refined-set-2016/4k9y/4k9y_pocket.pdb
REMARK  281 active torsions:
REMARK  status: ('A' for Active; 'I' for Inactive)
REMARK    1  A    between atoms: _1  and  _3
REMARK    2  A    between atoms: _3  and  _4
REMARK    3  A    between atoms: _3  and  _6
REMARK    4  A    between atoms: _6  and  _7
REMARK    5  A    between atoms: _7  and  _8
REMARK    6  A    between atoms: _8  and  _9
REMARK    7  A    between atoms: _18  and  _20
REMARK    8  A    between atoms: _20  and  _21
REMARK    9  A    between atoms: _20  and  _23
REMARK   10  A    between atoms: _23  and  _24
REMARK   11  A    between atoms: _27  and  _29
REMARK   12  A    between atoms: _29  and  _30
REMARK   13  A    between atoms: _32  and  _34
REMARK   14  A    between atoms: _34  and  _35
REMARK   15  A    between atoms: _34  and  _37
REMARK   16  A    between atoms: _37  and  _38
REMARK   17  A    between atoms: _38  and  _39
REMARK   18  A    between atoms: _42  and  _44
REMARK   19  A    between atoms: _44  and  _45
REMARK   20  A    between atoms: _44  and  _47
REMARK   21  A    between atoms: _47  and  _48
REMARK   22  A    between atoms: _54  and  _56
REMARK   23  A    between atoms: _56  and  _57
REMARK   24  A    between atoms: _56  and  _59
REMARK   25  A    between atoms: _62  and  _64
REMARK   26  A    between atoms: _64  and  _65
REMARK   27  A    between atoms: _64  and  _67
REMARK   28  A    between atoms: _67  and  _68
REMARK   29  A    between atoms: _73  and  _75
REMARK   30  A    between atoms: _75  and  _76
REMARK   31  A    between atoms: _75  and  _78
REMARK   32  A    between atoms: _78  and  _79
REMARK   33  A    between atoms: _79  and  _80
REMARK   34  A    between atoms: _85  and  _87
REMARK   35  A    between atoms: _87  and  _88
REMARK   36  A    between atoms: _91  and  _93
REMARK   37  A    between atoms: _93  and  _94
REMARK   38  A    between atoms: _93  and  _96
REMARK   39  A    between atoms: _99  and  _101
REMARK   40  A    between atoms: _101  and  _102
REMARK   41  A    between atoms: _105  and  _107
REMARK   42  A    between atoms: _107  and  _108
REMARK   43  A    between atoms: _107  and  _110
REMARK   44  A    between atoms: _110  and  _111
REMARK   45  A    between atoms: _114  and  _116
REMARK   46  A    between atoms: _116  and  _117
REMARK   47  A    between atoms: _116  and  _119
REMARK   48  A    between atoms: _119  and  _120
REMARK   49  A    between atoms: _120  and  _121
REMARK   50  A    between atoms: _121  and  _122
REMARK   51  A    between atoms: _122  and  _123
REMARK   52  A    between atoms: _127  and  _129
REMARK   53  A    between atoms: _129  and  _130
REMARK   54  A    between atoms: _129  and  _132
REMARK   55  A    between atoms: _132  and  _133
REMARK   56  A    between atoms: _133  and  _134
REMARK   57  A    between atoms: _134  and  _135
REMARK   58  A    between atoms: _135  and  _136
REMARK   59  A    between atoms: _140  and  _142
REMARK   60  A    between atoms: _142  and  _143
REMARK   61  A    between atoms: _142  and  _145
REMARK   62  A    between atoms: _145  and  _146
REMARK   63  A    between atoms: _152  and  _154
REMARK   64  A    between atoms: _154  and  _155
REMARK   65  A    between atoms: _154  and  _157
REMARK   66  A    between atoms: _157  and  _158
REMARK   67  A    between atoms: _161  and  _163
REMARK   68  A    between atoms: _163  and  _164
REMARK   69  A    between atoms: _163  and  _166
REMARK   70  A    between atoms: _166  and  _167
REMARK   71  A    between atoms: _167  and  _168
REMARK   72  A    between atoms: _173  and  _175
REMARK   73  A    between atoms: _175  and  _176
REMARK   74  A    between atoms: _175  and  _178
REMARK   75  A    between atoms: _178  and  _179
REMARK   76  A    between atoms: _179  and  _180
REMARK   77  A    between atoms: _183  and  _185
REMARK   78  A    between atoms: _185  and  _186
REMARK   79  A    between atoms: _189  and  _191
REMARK   80  A    between atoms: _191  and  _192
REMARK   81  A    between atoms: _191  and  _194
REMARK   82  A    between atoms: _194  and  _195
REMARK   83  A    between atoms: _198  and  _200
REMARK   84  A    between atoms: _200  and  _201
REMARK   85  A    between atoms: _200  and  _203
REMARK   86  A    between atoms: _203  and  _204
REMARK   87  A    between atoms: _207  and  _209
REMARK   88  A    between atoms: _209  and  _210
REMARK   89  A    between atoms: _209  and  _212
REMARK   90  A    between atoms: _212  and  _213
REMARK   91  A    between atoms: _213  and  _214
REMARK   92  A    between atoms: _216  and  _218
REMARK   93  A    between atoms: _218  and  _219
REMARK   94  A    between atoms: _218  and  _221
REMARK   95  A    between atoms: _221  and  _222
REMARK   96  A    between atoms: _222  and  _223
REMARK   97  A    between atoms: _223  and  _224
REMARK   98  A    between atoms: _233  and  _235
REMARK   99  A    between atoms: _235  and  _236
REMARK  100  A    between atoms: _235  and  _238
REMARK  101  A    between atoms: _238  and  _239
REMARK  102  A    between atoms: _239  and  _240
REMARK  103  A    between atoms: _245  and  _247
REMARK  104  A    between atoms: _247  and  _248
REMARK  105  A    between atoms: _247  and  _250
REMARK  106  A    between atoms: _250  and  _251
REMARK  107  A    between atoms: _257  and  _259
REMARK  108  A    between atoms: _259  and  _260
REMARK  109  A    between atoms: _259  and  _262
REMARK  110  A    between atoms: _262  and  _263
REMARK  111  A    between atoms: _266  and  _268
REMARK  112  A    between atoms: _268  and  _269
REMARK  113  A    between atoms: _268  and  _271
REMARK  114  A    between atoms: _271  and  _272
REMARK  115  A    between atoms: _277  and  _279
REMARK  116  A    between atoms: _279  and  _280
REMARK  117  A    between atoms: _279  and  _282
REMARK  118  A    between atoms: _282  and  _283
REMARK  119  A    between atoms: _286  and  _288
REMARK  120  A    between atoms: _288  and  _289
REMARK  121  A    between atoms: _288  and  _291
REMARK  122  A    between atoms: _294  and  _296
REMARK  123  A    between atoms: _296  and  _297
REMARK  124  A    between atoms: _296  and  _299
REMARK  125  A    between atoms: _299  and  _300
REMARK  126  A    between atoms: _300  and  _301
REMARK  127  A    between atoms: _301  and  _302
REMARK  128  A    between atoms: _302  and  _303
REMARK  129  A    between atoms: _307  and  _309
REMARK  130  A    between atoms: _309  and  _310
REMARK  131  A    between atoms: _309  and  _312
REMARK  132  A    between atoms: _312  and  _313
REMARK  133  A    between atoms: _316  and  _318
REMARK  134  A    between atoms: _318  and  _319
REMARK  135  A    between atoms: _318  and  _321
REMARK  136  A    between atoms: _321  and  _322
REMARK  137  A    between atoms: _325  and  _327
REMARK  138  A    between atoms: _327  and  _328
REMARK  139  A    between atoms: _327  and  _330
REMARK  140  A    between atoms: _330  and  _331
REMARK  141  A    between atoms: _334  and  _336
REMARK  142  A    between atoms: _336  and  _337
REMARK  143  A    between atoms: _336  and  _339
REMARK  144  A    between atoms: _339  and  _340
REMARK  145  A    between atoms: _340  and  _341
REMARK  146  A    between atoms: _343  and  _345
REMARK  147  A    between atoms: _345  and  _346
REMARK  148  A    between atoms: _345  and  _348
REMARK  149  A    between atoms: _348  and  _349
REMARK  150  A    between atoms: _349  and  _350
REMARK  151  A    between atoms: _353  and  _355
REMARK  152  A    between atoms: _355  and  _356
REMARK  153  A    between atoms: _355  and  _358
REMARK  154  A    between atoms: _358  and  _359
REMARK  155  A    between atoms: _362  and  _364
REMARK  156  A    between atoms: _364  and  _365
REMARK  157  A    between atoms: _364  and  _367
REMARK  158  A    between atoms: _369  and  _371
REMARK  159  A    between atoms: _371  and  _372
REMARK  160  A    between atoms: _371  and  _374
REMARK  161  A    between atoms: _374  and  _375
REMARK  162  A    between atoms: _378  and  _380
REMARK  163  A    between atoms: _380  and  _381
REMARK  164  A    between atoms: _380  and  _383
REMARK  165  A    between atoms: _383  and  _384
REMARK  166  A    between atoms: _387  and  _389
REMARK  167  A    between atoms: _389  and  _390
REMARK  168  A    between atoms: _392  and  _394
REMARK  169  A    between atoms: _394  and  _395
REMARK  170  A    between atoms: _394  and  _397
REMARK  171  A    between atoms: _397  and  _398
REMARK  172  A    between atoms: _398  and  _399
REMARK  173  A    between atoms: _402  and  _404
REMARK  174  A    between atoms: _404  and  _405
REMARK  175  A    between atoms: _408  and  _410
REMARK  176  A    between atoms: _410  and  _411
REMARK  177  A    between atoms: _410  and  _413
REMARK  178  A    between atoms: _413  and  _414
REMARK  179  A    between atoms: _417  and  _419
REMARK  180  A    between atoms: _419  and  _420
REMARK  181  A    between atoms: _419  and  _422
REMARK  182  A    between atoms: _422  and  _423
REMARK  183  A    between atoms: _428  and  _429
REMARK  184  A    between atoms: _431  and  _433
REMARK  185  A    between atoms: _433  and  _434
REMARK  186  A    between atoms: _433  and  _436
REMARK  187  A    between atoms: _436  and  _437
REMARK  188  A    between atoms: _440  and  _442
REMARK  189  A    between atoms: _442  and  _443
REMARK  190  A    between atoms: _442  and  _445
REMARK  191  A    between atoms: _445  and  _446
REMARK  192  A    between atoms: _452  and  _454
REMARK  193  A    between atoms: _454  and  _455
REMARK  194  A    between atoms: _454  and  _457
REMARK  195  A    between atoms: _460  and  _462
REMARK  196  A    between atoms: _462  and  _463
REMARK  197  A    between atoms: _462  and  _465
REMARK  198  A    between atoms: _465  and  _466
REMARK  199  A    between atoms: _471  and  _473
REMARK  200  A    between atoms: _473  and  _474
REMARK  201  A    between atoms: _473  and  _476
REMARK  202  A    between atoms: _476  and  _477
REMARK  203  A    between atoms: _477  and  _478
REMARK  204  A    between atoms: _478  and  _479
REMARK  205  A    between atoms: _488  and  _490
REMARK  206  A    between atoms: _490  and  _491
REMARK  207  A    between atoms: _490  and  _493
REMARK  208  A    between atoms: _493  and  _494
REMARK  209  A    between atoms: _497  and  _499
REMARK  210  A    between atoms: _499  and  _500
REMARK  211  A    between atoms: _499  and  _502
REMARK  212  A    between atoms: _502  and  _503
REMARK  213  A    between atoms: _506  and  _508
REMARK  214  A    between atoms: _508  and  _509
REMARK  215  A    between atoms: _508  and  _511
REMARK  216  A    between atoms: _511  and  _512
REMARK  217  A    between atoms: _517  and  _519
REMARK  218  A    between atoms: _519  and  _520
REMARK  219  A    between atoms: _519  and  _522
REMARK  220  A    between atoms: _525  and  _527
REMARK  221  A    between atoms: _527  and  _528
REMARK  222  A    between atoms: _527  and  _530
REMARK  223  A    between atoms: _530  and  _531
REMARK  224  A    between atoms: _534  and  _536
REMARK  225  A    between atoms: _536  and  _537
REMARK  226  A    between atoms: _536  and  _539
REMARK  227  A    between atoms: _542  and  _544
REMARK  228  A    between atoms: _544  and  _545
REMARK  229  A    between atoms: _544  and  _547
REMARK  230  A    between atoms: _547  and  _548
REMARK  231  A    between atoms: _550  and  _552
REMARK  232  A    between atoms: _552  and  _553
REMARK  233  A    between atoms: _552  and  _555
REMARK  234  A    between atoms: _555  and  _556
REMARK  235  A    between atoms: _556  and  _557
REMARK  236  A    between atoms: _557  and  _558
REMARK  237  A    between atoms: _558  and  _559
REMARK  238  A    between atoms: _563  and  _565
REMARK  239  A    between atoms: _565  and  _566
REMARK  240  A    between atoms: _565  and  _568
REMARK  241  A    between atoms: _568  and  _569
REMARK  242  A    between atoms: _572  and  _574
REMARK  243  A    between atoms: _574  and  _575
REMARK  244  A    between atoms: _577  and  _579
REMARK  245  A    between atoms: _579  and  _580
REMARK  246  A    between atoms: _579  and  _582
REMARK  247  A    between atoms: _582  and  _583
REMARK  248  A    between atoms: _586  and  _588
REMARK  249  A    between atoms: _588  and  _589
REMARK  250  A    between atoms: _588  and  _591
REMARK  251  A    between atoms: _591  and  _592
REMARK  252  A    between atoms: _598  and  _600
REMARK  253  A    between atoms: _600  and  _601
REMARK  254  A    between atoms: _603  and  _605
REMARK  255  A    between atoms: _605  and  _606
REMARK  256  A    between atoms: _605  and  _608
REMARK  257  A    between atoms: _608  and  _609
REMARK  258  A    between atoms: _612  and  _614
REMARK  259  A    between atoms: _614  and  _615
REMARK  260  A    between atoms: _614  and  _617
REMARK  261  A    between atoms: _617  and  _618
REMARK  262  A    between atoms: _620  and  _622
REMARK  263  A    between atoms: _622  and  _623
REMARK  264  A    between atoms: _622  and  _625
REMARK  265  A    between atoms: _625  and  _626
REMARK  266  A    between atoms: _626  and  _627
REMARK  267  A    between atoms: _627  and  _628
REMARK  268  A    between atoms: _637  and  _639
REMARK  269  A    between atoms: _639  and  _640
REMARK  270  A    between atoms: _639  and  _642
REMARK  271  A    between atoms: _642  and  _643
REMARK  272  A    between atoms: _648  and  _649
REMARK  273  A    between atoms: _651  and  _653
REMARK  274  A    between atoms: _653  and  _654
REMARK  275  A    between atoms: _653  and  _656
REMARK  276  A    between atoms: _656  and  _657
REMARK  277  A    between atoms: _657  and  _658
REMARK  278  A    between atoms: _660  and  _662
REMARK  279  A    between atoms: _662  and  _663
REMARK  280  A    between atoms: _662  and  _665
REMARK  281  A    between atoms: _665  and  _666
REMARK                            x       y       z     vdW  Elec       q    Type
REMARK                         _______ _______ _______ _____ _____    ______ ____
ROOT
ATOM      1  O   HOH     1     -18.165 -17.532   5.787  0.00  0.00    +0.000 OA
ENDROOT
TORSDOF 0
REMARK  Name = ../refined-set-2016/4k9y/4k9y_pocket.pdb
REMARK  281 active torsions:
REMARK  status: ('A' for Active; 'I' for Inactive)
REMARK    1  A    between atoms: _1  and  _3
REMARK    2  A    between atoms: _3  and  _4
REMARK    3  A    between atoms: _3  and  _6
REMARK    4  A    between atoms: _6  and  _7
REMARK    5  A    between atoms: _7  and  _8
REMARK    6  A    between atoms: _8  and  _9
REMARK    7  A    between atoms: _18  and  _20
REMARK    8  A    between atoms: _20  and  _21
REMARK    9  A    between atoms: _20  and  _23
REMARK   10  A    between atoms: _23  and  _24
REMARK   11  A    between atoms: _27  and  _29
REMARK   12  A    between atoms: _29  and  _30
REMARK   13  A    between atoms: _32  and  _34
REMARK   14  A    between atoms: _34  and  _35
REMARK   15  A    between atoms: _34  and  _37
REMARK   16  A    between atoms: _37  and  _38
REMARK   17  A    between atoms: _38  and  _39
REMARK   18  A    between atoms: _42  and  _44
REMARK   19  A    between atoms: _44  and  _45
REMARK   20  A    between atoms: _44  and  _47
REMARK   21  A    between atoms: _47  and  _48
REMARK   22  A    between atoms: _54  and  _56
REMARK   23  A    between atoms: _56  and  _57
REMARK   24  A    between atoms: _56  and  _59
REMARK   25  A    between atoms: _62  and  _64
REMARK   26  A    between atoms: _64  and  _65
REMARK   27  A    between atoms: _64  and  _67
REMARK   28  A    between atoms: _67  and  _68
REMARK   29  A    between atoms: _73  and  _75
REMARK   30  A    between atoms: _75  and  _76
REMARK   31  A    between atoms: _75  and  _78
REMARK   32  A    between atoms: _78  and  _79
REMARK   33  A    between atoms: _79  and  _80
REMARK   34  A    between atoms: _85  and  _87
REMARK   35  A    between atoms: _87  and  _88
REMARK   36  A    between atoms: _91  and  _93
REMARK   37  A    between atoms: _93  and  _94
REMARK   38  A    between atoms: _93  and  _96
REMARK   39  A    between atoms: _99  and  _101
REMARK   40  A    between atoms: _101  and  _102
REMARK   41  A    between atoms: _105  and  _107
REMARK   42  A    between atoms: _107  and  _108
REMARK   43  A    between atoms: _107  and  _110
REMARK   44  A    between atoms: _110  and  _111
REMARK   45  A    between atoms: _114  and  _116
REMARK   46  A    between atoms: _116  and  _117
REMARK   47  A    between atoms: _116  and  _119
REMARK   48  A    between atoms: _119  and  _120
REMARK   49  A    between atoms: _120  and  _121
REMARK   50  A    between atoms: _121  and  _122
REMARK   51  A    between atoms: _122  and  _123
REMARK   52  A    between atoms: _127  and  _129
REMARK   53  A    between atoms: _129  and  _130
REMARK   54  A    between atoms: _129  and  _132
REMARK   55  A    between atoms: _132  and  _133
REMARK   56  A    between atoms: _133  and  _134
REMARK   57  A    between atoms: _134  and  _135
REMARK   58  A    between atoms: _135  and  _136
REMARK   59  A    between atoms: _140  and  _142
REMARK   60  A    between atoms: _142  and  _143
REMARK   61  A    between atoms: _142  and  _145
REMARK   62  A    between atoms: _145  and  _146
REMARK   63  A    between atoms: _152  and  _154
REMARK   64  A    between atoms: _154  and  _155
REMARK   65  A    between atoms: _154  and  _157
REMARK   66  A    between atoms: _157  and  _158
REMARK   67  A    between atoms: _161  and  _163
REMARK   68  A    between atoms: _163  and  _164
REMARK   69  A    between atoms: _163  and  _166
REMARK   70  A    between atoms: _166  and  _167
REMARK   71  A    between atoms: _167  and  _168
REMARK   72  A    between atoms: _173  and  _175
REMARK   73  A    between atoms: _175  and  _176
REMARK   74  A    between atoms: _175  and  _178
REMARK   75  A    between atoms: _178  and  _179
REMARK   76  A    between atoms: _179  and  _180
REMARK   77  A    between atoms: _183  and  _185
REMARK   78  A    between atoms: _185  and  _186
REMARK   79  A    between atoms: _189  and  _191
REMARK   80  A    between atoms: _191  and  _192
REMARK   81  A    between atoms: _191  and  _194
REMARK   82  A    between atoms: _194  and  _195
REMARK   83  A    between atoms: _198  and  _200
REMARK   84  A    between atoms: _200  and  _201
REMARK   85  A    between atoms: _200  and  _203
REMARK   86  A    between atoms: _203  and  _204
REMARK   87  A    between atoms: _207  and  _209
REMARK   88  A    between atoms: _209  and  _210
REMARK   89  A    between atoms: _209  and  _212
REMARK   90  A    between atoms: _212  and  _213
REMARK   91  A    between atoms: _213  and  _214
REMARK   92  A    between atoms: _216  and  _218
REMARK   93  A    between atoms: _218  and  _219
REMARK   94  A    between atoms: _218  and  _221
REMARK   95  A    between atoms: _221  and  _222
REMARK   96  A    between atoms: _222  and  _223
REMARK   97  A    between atoms: _223  and  _224
REMARK   98  A    between atoms: _233  and  _235
REMARK   99  A    between atoms: _235  and  _236
REMARK  100  A    between atoms: _235  and  _238
REMARK  101  A    between atoms: _238  and  _239
REMARK  102  A    between atoms: _239  and  _240
REMARK  103  A    between atoms: _245  and  _247
REMARK  104  A    between atoms: _247  and  _248
REMARK  105  A    between atoms: _247  and  _250
REMARK  106  A    between atoms: _250  and  _251
REMARK  107  A    between atoms: _257  and  _259
REMARK  108  A    between atoms: _259  and  _260
REMARK  109  A    between atoms: _259  and  _262
REMARK  110  A    between atoms: _262  and  _263
REMARK  111  A    between atoms: _266  and  _268
REMARK  112  A    between atoms: _268  and  _269
REMARK  113  A    between atoms: _268  and  _271
REMARK  114  A    between atoms: _271  and  _272
REMARK  115  A    between atoms: _277  and  _279
REMARK  116  A    between atoms: _279  and  _280
REMARK  117  A    between atoms: _279  and  _282
REMARK  118  A    between atoms: _282  and  _283
REMARK  119  A    between atoms: _286  and  _288
REMARK  120  A    between atoms: _288  and  _289
REMARK  121  A    between atoms: _288  and  _291
REMARK  122  A    between atoms: _294  and  _296
REMARK  123  A    between atoms: _296  and  _297
REMARK  124  A    between atoms: _296  and  _299
REMARK  125  A    between atoms: _299  and  _300
REMARK  126  A    between atoms: _300  and  _301
REMARK  127  A    between atoms: _301  and  _302
REMARK  128  A    between atoms: _302  and  _303
REMARK  129  A    between atoms: _307  and  _309
REMARK  130  A    between atoms: _309  and  _310
REMARK  131  A    between atoms: _309  and  _312
REMARK  132  A    between atoms: _312  and  _313
REMARK  133  A    between atoms: _316  and  _318
REMARK  134  A    between atoms: _318  and  _319
REMARK  135  A    between atoms: _318  and  _321
REMARK  136  A    between atoms: _321  and  _322
REMARK  137  A    between atoms: _325  and  _327
REMARK  138  A    between atoms: _327  and  _328
REMARK  139  A    between atoms: _327  and  _330
REMARK  140  A    between atoms: _330  and  _331
REMARK  141  A    between atoms: _334  and  _336
REMARK  142  A    between atoms: _336  and  _337
REMARK  143  A    between atoms: _336  and  _339
REMARK  144  A    between atoms: _339  and  _340
REMARK  145  A    between atoms: _340  and  _341
REMARK  146  A    between atoms: _343  and  _345
REMARK  147  A    between atoms: _345  and  _346
REMARK  148  A    between atoms: _345  and  _348
REMARK  149  A    between atoms: _348  and  _349
REMARK  150  A    between atoms: _349  and  _350
REMARK  151  A    between atoms: _353  and  _355
REMARK  152  A    between atoms: _355  and  _356
REMARK  153  A    between atoms: _355  and  _358
REMARK  154  A    between atoms: _358  and  _359
REMARK  155  A    between atoms: _362  and  _364
REMARK  156  A    between atoms: _364  and  _365
REMARK  157  A    between atoms: _364  and  _367
REMARK  158  A    between atoms: _369  and  _371
REMARK  159  A    between atoms: _371  and  _372
REMARK  160  A    between atoms: _371  and  _374
REMARK  161  A    between atoms: _374  and  _375
REMARK  162  A    between atoms: _378  and  _380
REMARK  163  A    between atoms: _380  and  _381
REMARK  164  A    between atoms: _380  and  _383
REMARK  165  A    between atoms: _383  and  _384
REMARK  166  A    between atoms: _387  and  _389
REMARK  167  A    between atoms: _389  and  _390
REMARK  168  A    between atoms: _392  and  _394
REMARK  169  A    between atoms: _394  and  _395
REMARK  170  A    between atoms: _394  and  _397
REMARK  171  A    between atoms: _397  and  _398
REMARK  172  A    between atoms: _398  and  _399
REMARK  173  A    between atoms: _402  and  _404
REMARK  174  A    between atoms: _404  and  _405
REMARK  175  A    between atoms: _408  and  _410
REMARK  176  A    between atoms: _410  and  _411
REMARK  177  A    between atoms: _410  and  _413
REMARK  178  A    between atoms: _413  and  _414
REMARK  179  A    between atoms: _417  and  _419
REMARK  180  A    between atoms: _419  and  _420
REMARK  181  A    between atoms: _419  and  _422
REMARK  182  A    between atoms: _422  and  _423
REMARK  183  A    between atoms: _428  and  _429
REMARK  184  A    between atoms: _431  and  _433
REMARK  185  A    between atoms: _433  and  _434
REMARK  186  A    between atoms: _433  and  _436
REMARK  187  A    between atoms: _436  and  _437
REMARK  188  A    between atoms: _440  and  _442
REMARK  189  A    between atoms: _442  and  _443
REMARK  190  A    between atoms: _442  and  _445
REMARK  191  A    between atoms: _445  and  _446
REMARK  192  A    between atoms: _452  and  _454
REMARK  193  A    between atoms: _454  and  _455
REMARK  194  A    between atoms: _454  and  _457
REMARK  195  A    between atoms: _460  and  _462
REMARK  196  A    between atoms: _462  and  _463
REMARK  197  A    between atoms: _462  and  _465
REMARK  198  A    between atoms: _465  and  _466
REMARK  199  A    between atoms: _471  and  _473
REMARK  200  A    between atoms: _473  and  _474
REMARK  201  A    between atoms: _473  and  _476
REMARK  202  A    between atoms: _476  and  _477
REMARK  203  A    between atoms: _477  and  _478
REMARK  204  A    between atoms: _478  and  _479
REMARK  205  A    between atoms: _488  and  _490
REMARK  206  A    between atoms: _490  and  _491
REMARK  207  A    between atoms: _490  and  _493
REMARK  208  A    between atoms: _493  and  _494
REMARK  209  A    between atoms: _497  and  _499
REMARK  210  A    between atoms: _499  and  _500
REMARK  211  A    between atoms: _499  and  _502
REMARK  212  A    between atoms: _502  and  _503
REMARK  213  A    between atoms: _506  and  _508
REMARK  214  A    between atoms: _508  and  _509
REMARK  215  A    between atoms: _508  and  _511
REMARK  216  A    between atoms: _511  and  _512
REMARK  217  A    between atoms: _517  and  _519
REMARK  218  A    between atoms: _519  and  _520
REMARK  219  A    between atoms: _519  and  _522
REMARK  220  A    between atoms: _525  and  _527
REMARK  221  A    between atoms: _527  and  _528
REMARK  222  A    between atoms: _527  and  _530
REMARK  223  A    between atoms: _530  and  _531
REMARK  224  A    between atoms: _534  and  _536
REMARK  225  A    between atoms: _536  and  _537
REMARK  226  A    between atoms: _536  and  _539
REMARK  227  A    between atoms: _542  and  _544
REMARK  228  A    between atoms: _544  and  _545
REMARK  229  A    between atoms: _544  and  _547
REMARK  230  A    between atoms: _547  and  _548
REMARK  231  A    between atoms: _550  and  _552
REMARK  232  A    between atoms: _552  and  _553
REMARK  233  A    between atoms: _552  and  _555
REMARK  234  A    between atoms: _555  and  _556
REMARK  235  A    between atoms: _556  and  _557
REMARK  236  A    between atoms: _557  and  _558
REMARK  237  A    between atoms: _558  and  _559
REMARK  238  A    between atoms: _563  and  _565
REMARK  239  A    between atoms: _565  and  _566
REMARK  240  A    between atoms: _565  and  _568
REMARK  241  A    between atoms: _568  and  _569
REMARK  242  A    between atoms: _572  and  _574
REMARK  243  A    between atoms: _574  and  _575
REMARK  244  A    between atoms: _577  and  _579
REMARK  245  A    between atoms: _579  and  _580
REMARK  246  A    between atoms: _579  and  _582
REMARK  247  A    between atoms: _582  and  _583
REMARK  248  A    between atoms: _586  and  _588
REMARK  249  A    between atoms: _588  and  _589
REMARK  250  A    between atoms: _588  and  _591
REMARK  251  A    between atoms: _591  and  _592
REMARK  252  A    between atoms: _598  and  _600
REMARK  253  A    between atoms: _600  and  _601
REMARK  254  A    between atoms: _603  and  _605
REMARK  255  A    between atoms: _605  and  _606
REMARK  256  A    between atoms: _605  and  _608
REMARK  257  A    between atoms: _608  and  _609
REMARK  258  A    between atoms: _612  and  _614
REMARK  259  A    between atoms: _614  and  _615
REMARK  260  A    between atoms: _614  and  _617
REMARK  261  A    between atoms: _617  and  _618
REMARK  262  A    between atoms: _620  and  _622
REMARK  263  A    between atoms: _622  and  _623
REMARK  264  A    between atoms: _622  and  _625
REMARK  265  A    between atoms: _625  and  _626
REMARK  266  A    between atoms: _626  and  _627
REMARK  267  A    between atoms: _627  and  _628
REMARK  268  A    between atoms: _637  and  _639
REMARK  269  A    between atoms: _639  and  _640
REMARK  270  A    between atoms: _639  and  _642
REMARK  271  A    between atoms: _642  and  _643
REMARK  272  A    between atoms: _648  and  _649
REMARK  273  A    between atoms: _651  and  _653
REMARK  274  A    between atoms: _653  and  _654
REMARK  275  A    between atoms: _653  and  _656
REMARK  276  A    between atoms: _656  and  _657
REMARK  277  A    between atoms: _657  and  _658
REMARK  278  A    between atoms: _660  and  _662
REMARK  279  A    between atoms: _662  and  _663
REMARK  280  A    between atoms: _662  and  _665
REMARK  281  A    between atoms: _665  and  _666
REMARK                            x       y       z     vdW  Elec       q    Type
REMARK                         _______ _______ _______ _____ _____    ______ ____
ROOT
ATOM      1  O   HOH     1     -20.699 -20.925  -5.155  0.00  0.00    +0.000 OA
ENDROOT
TORSDOF 0
REMARK  Name = ../refined-set-2016/4k9y/4k9y_pocket.pdb
REMARK  281 active torsions:
REMARK  status: ('A' for Active; 'I' for Inactive)
REMARK    1  A    between atoms: _1  and  _3
REMARK    2  A    between atoms: _3  and  _4
REMARK    3  A    between atoms: _3  and  _6
REMARK    4  A    between atoms: _6  and  _7
REMARK    5  A    between atoms: _7  and  _8
REMARK    6  A    between atoms: _8  and  _9
REMARK    7  A    between atoms: _18  and  _20
REMARK    8  A    between atoms: _20  and  _21
REMARK    9  A    between atoms: _20  and  _23
REMARK   10  A    between atoms: _23  and  _24
REMARK   11  A    between atoms: _27  and  _29
REMARK   12  A    between atoms: _29  and  _30
REMARK   13  A    between atoms: _32  and  _34
REMARK   14  A    between atoms: _34  and  _35
REMARK   15  A    between atoms: _34  and  _37
REMARK   16  A    between atoms: _37  and  _38
REMARK   17  A    between atoms: _38  and  _39
REMARK   18  A    between atoms: _42  and  _44
REMARK   19  A    between atoms: _44  and  _45
REMARK   20  A    between atoms: _44  and  _47
REMARK   21  A    between atoms: _47  and  _48
REMARK   22  A    between atoms: _54  and  _56
REMARK   23  A    between atoms: _56  and  _57
REMARK   24  A    between atoms: _56  and  _59
REMARK   25  A    between atoms: _62  and  _64
REMARK   26  A    between atoms: _64  and  _65
REMARK   27  A    between atoms: _64  and  _67
REMARK   28  A    between atoms: _67  and  _68
REMARK   29  A    between atoms: _73  and  _75
REMARK   30  A    between atoms: _75  and  _76
REMARK   31  A    between atoms: _75  and  _78
REMARK   32  A    between atoms: _78  and  _79
REMARK   33  A    between atoms: _79  and  _80
REMARK   34  A    between atoms: _85  and  _87
REMARK   35  A    between atoms: _87  and  _88
REMARK   36  A    between atoms: _91  and  _93
REMARK   37  A    between atoms: _93  and  _94
REMARK   38  A    between atoms: _93  and  _96
REMARK   39  A    between atoms: _99  and  _101
REMARK   40  A    between atoms: _101  and  _102
REMARK   41  A    between atoms: _105  and  _107
REMARK   42  A    between atoms: _107  and  _108
REMARK   43  A    between atoms: _107  and  _110
REMARK   44  A    between atoms: _110  and  _111
REMARK   45  A    between atoms: _114  and  _116
REMARK   46  A    between atoms: _116  and  _117
REMARK   47  A    between atoms: _116  and  _119
REMARK   48  A    between atoms: _119  and  _120
REMARK   49  A    between atoms: _120  and  _121
REMARK   50  A    between atoms: _121  and  _122
REMARK   51  A    between atoms: _122  and  _123
REMARK   52  A    between atoms: _127  and  _129
REMARK   53  A    between atoms: _129  and  _130
REMARK   54  A    between atoms: _129  and  _132
REMARK   55  A    between atoms: _132  and  _133
REMARK   56  A    between atoms: _133  and  _134
REMARK   57  A    between atoms: _134  and  _135
REMARK   58  A    between atoms: _135  and  _136
REMARK   59  A    between atoms: _140  and  _142
REMARK   60  A    between atoms: _142  and  _143
REMARK   61  A    between atoms: _142  and  _145
REMARK   62  A    between atoms: _145  and  _146
REMARK   63  A    between atoms: _152  and  _154
REMARK   64  A    between atoms: _154  and  _155
REMARK   65  A    between atoms: _154  and  _157
REMARK   66  A    between atoms: _157  and  _158
REMARK   67  A    between atoms: _161  and  _163
REMARK   68  A    between atoms: _163  and  _164
REMARK   69  A    between atoms: _163  and  _166
REMARK   70  A    between atoms: _166  and  _167
REMARK   71  A    between atoms: _167  and  _168
REMARK   72  A    between atoms: _173  and  _175
REMARK   73  A    between atoms: _175  and  _176
REMARK   74  A    between atoms: _175  and  _178
REMARK   75  A    between atoms: _178  and  _179
REMARK   76  A    between atoms: _179  and  _180
REMARK   77  A    between atoms: _183  and  _185
REMARK   78  A    between atoms: _185  and  _186
REMARK   79  A    between atoms: _189  and  _191
REMARK   80  A    between atoms: _191  and  _192
REMARK   81  A    between atoms: _191  and  _194
REMARK   82  A    between atoms: _194  and  _195
REMARK   83  A    between atoms: _198  and  _200
REMARK   84  A    between atoms: _200  and  _201
REMARK   85  A    between atoms: _200  and  _203
REMARK   86  A    between atoms: _203  and  _204
REMARK   87  A    between atoms: _207  and  _209
REMARK   88  A    between atoms: _209  and  _210
REMARK   89  A    between atoms: _209  and  _212
REMARK   90  A    between atoms: _212  and  _213
REMARK   91  A    between atoms: _213  and  _214
REMARK   92  A    between atoms: _216  and  _218
REMARK   93  A    between atoms: _218  and  _219
REMARK   94  A    between atoms: _218  and  _221
REMARK   95  A    between atoms: _221  and  _222
REMARK   96  A    between atoms: _222  and  _223
REMARK   97  A    between atoms: _223  and  _224
REMARK   98  A    between atoms: _233  and  _235
REMARK   99  A    between atoms: _235  and  _236
REMARK  100  A    between atoms: _235  and  _238
REMARK  101  A    between atoms: _238  and  _239
REMARK  102  A    between atoms: _239  and  _240
REMARK  103  A    between atoms: _245  and  _247
REMARK  104  A    between atoms: _247  and  _248
REMARK  105  A    between atoms: _247  and  _250
REMARK  106  A    between atoms: _250  and  _251
REMARK  107  A    between atoms: _257  and  _259
REMARK  108  A    between atoms: _259  and  _260
REMARK  109  A    between atoms: _259  and  _262
REMARK  110  A    between atoms: _262  and  _263
REMARK  111  A    between atoms: _266  and  _268
REMARK  112  A    between atoms: _268  and  _269
REMARK  113  A    between atoms: _268  and  _271
REMARK  114  A    between atoms: _271  and  _272
REMARK  115  A    between atoms: _277  and  _279
REMARK  116  A    between atoms: _279  and  _280
REMARK  117  A    between atoms: _279  and  _282
REMARK  118  A    between atoms: _282  and  _283
REMARK  119  A    between atoms: _286  and  _288
REMARK  120  A    between atoms: _288  and  _289
REMARK  121  A    between atoms: _288  and  _291
REMARK  122  A    between atoms: _294  and  _296
REMARK  123  A    between atoms: _296  and  _297
REMARK  124  A    between atoms: _296  and  _299
REMARK  125  A    between atoms: _299  and  _300
REMARK  126  A    between atoms: _300  and  _301
REMARK  127  A    between atoms: _301  and  _302
REMARK  128  A    between atoms: _302  and  _303
REMARK  129  A    between atoms: _307  and  _309
REMARK  130  A    between atoms: _309  and  _310
REMARK  131  A    between atoms: _309  and  _312
REMARK  132  A    between atoms: _312  and  _313
REMARK  133  A    between atoms: _316  and  _318
REMARK  134  A    between atoms: _318  and  _319
REMARK  135  A    between atoms: _318  and  _321
REMARK  136  A    between atoms: _321  and  _322
REMARK  137  A    between atoms: _325  and  _327
REMARK  138  A    between atoms: _327  and  _328
REMARK  139  A    between atoms: _327  and  _330
REMARK  140  A    between atoms: _330  and  _331
REMARK  141  A    between atoms: _334  and  _336
REMARK  142  A    between atoms: _336  and  _337
REMARK  143  A    between atoms: _336  and  _339
REMARK  144  A    between atoms: _339  and  _340
REMARK  145  A    between atoms: _340  and  _341
REMARK  146  A    between atoms: _343  and  _345
REMARK  147  A    between atoms: _345  and  _346
REMARK  148  A    between atoms: _345  and  _348
REMARK  149  A    between atoms: _348  and  _349
REMARK  150  A    between atoms: _349  and  _350
REMARK  151  A    between atoms: _353  and  _355
REMARK  152  A    between atoms: _355  and  _356
REMARK  153  A    between atoms: _355  and  _358
REMARK  154  A    between atoms: _358  and  _359
REMARK  155  A    between atoms: _362  and  _364
REMARK  156  A    between atoms: _364  and  _365
REMARK  157  A    between atoms: _364  and  _367
REMARK  158  A    between atoms: _369  and  _371
REMARK  159  A    between atoms: _371  and  _372
REMARK  160  A    between atoms: _371  and  _374
REMARK  161  A    between atoms: _374  and  _375
REMARK  162  A    between atoms: _378  and  _380
REMARK  163  A    between atoms: _380  and  _381
REMARK  164  A    between atoms: _380  and  _383
REMARK  165  A    between atoms: _383  and  _384
REMARK  166  A    between atoms: _387  and  _389
REMARK  167  A    between atoms: _389  and  _390
REMARK  168  A    between atoms: _392  and  _394
REMARK  169  A    between atoms: _394  and  _395
REMARK  170  A    between atoms: _394  and  _397
REMARK  171  A    between atoms: _397  and  _398
REMARK  172  A    between atoms: _398  and  _399
REMARK  173  A    between atoms: _402  and  _404
REMARK  174  A    between atoms: _404  and  _405
REMARK  175  A    between atoms: _408  and  _410
REMARK  176  A    between atoms: _410  and  _411
REMARK  177  A    between atoms: _410  and  _413
REMARK  178  A    between atoms: _413  and  _414
REMARK  179  A    between atoms: _417  and  _419
REMARK  180  A    between atoms: _419  and  _420
REMARK  181  A    between atoms: _419  and  _422
REMARK  182  A    between atoms: _422  and  _423
REMARK  183  A    between atoms: _428  and  _429
REMARK  184  A    between atoms: _431  and  _433
REMARK  185  A    between atoms: _433  and  _434
REMARK  186  A    between atoms: _433  and  _436
REMARK  187  A    between atoms: _436  and  _437
REMARK  188  A    between atoms: _440  and  _442
REMARK  189  A    between atoms: _442  and  _443
REMARK  190  A    between atoms: _442  and  _445
REMARK  191  A    between atoms: _445  and  _446
REMARK  192  A    between atoms: _452  and  _454
REMARK  193  A    between atoms: _454  and  _455
REMARK  194  A    between atoms: _454  and  _457
REMARK  195  A    between atoms: _460  and  _462
REMARK  196  A    between atoms: _462  and  _463
REMARK  197  A    between atoms: _462  and  _465
REMARK  198  A    between atoms: _465  and  _466
REMARK  199  A    between atoms: _471  and  _473
REMARK  200  A    between atoms: _473  and  _474
REMARK  201  A    between atoms: _473  and  _476
REMARK  202  A    between atoms: _476  and  _477
REMARK  203  A    between atoms: _477  and  _478
REMARK  204  A    between atoms: _478  and  _479
REMARK  205  A    between atoms: _488  and  _490
REMARK  206  A    between atoms: _490  and  _491
REMARK  207  A    between atoms: _490  and  _493
REMARK  208  A    between atoms: _493  and  _494
REMARK  209  A    between atoms: _497  and  _499
REMARK  210  A    between atoms: _499  and  _500
REMARK  211  A    between atoms: _499  and  _502
REMARK  212  A    between atoms: _502  and  _503
REMARK  213  A    between atoms: _506  and  _508
REMARK  214  A    between atoms: _508  and  _509
REMARK  215  A    between atoms: _508  and  _511
REMARK  216  A    between atoms: _511  and  _512
REMARK  217  A    between atoms: _517  and  _519
REMARK  218  A    between atoms: _519  and  _520
REMARK  219  A    between atoms: _519  and  _522
REMARK  220  A    between atoms: _525  and  _527
REMARK  221  A    between atoms: _527  and  _528
REMARK  222  A    between atoms: _527  and  _530
REMARK  223  A    between atoms: _530  and  _531
REMARK  224  A    between atoms: _534  and  _536
REMARK  225  A    between atoms: _536  and  _537
REMARK  226  A    between atoms: _536  and  _539
REMARK  227  A    between atoms: _542  and  _544
REMARK  228  A    between atoms: _544  and  _545
REMARK  229  A    between atoms: _544  and  _547
REMARK  230  A    between atoms: _547  and  _548
REMARK  231  A    between atoms: _550  and  _552
REMARK  232  A    between atoms: _552  and  _553
REMARK  233  A    between atoms: _552  and  _555
REMARK  234  A    between atoms: _555  and  _556
REMARK  235  A    between atoms: _556  and  _557
REMARK  236  A    between atoms: _557  and  _558
REMARK  237  A    between atoms: _558  and  _559
REMARK  238  A    between atoms: _563  and  _565
REMARK  239  A    between atoms: _565  and  _566
REMARK  240  A    between atoms: _565  and  _568
REMARK  241  A    between atoms: _568  and  _569
REMARK  242  A    between atoms: _572  and  _574
REMARK  243  A    between atoms: _574  and  _575
REMARK  244  A    between atoms: _577  and  _579
REMARK  245  A    between atoms: _579  and  _580
REMARK  246  A    between atoms: _579  and  _582
REMARK  247  A    between atoms: _582  and  _583
REMARK  248  A    between atoms: _586  and  _588
REMARK  249  A    between atoms: _588  and  _589
REMARK  250  A    between atoms: _588  and  _591
REMARK  251  A    between atoms: _591  and  _592
REMARK  252  A    between atoms: _598  and  _600
REMARK  253  A    between atoms: _600  and  _601
REMARK  254  A    between atoms: _603  and  _605
REMARK  255  A    between atoms: _605  and  _606
REMARK  256  A    between atoms: _605  and  _608
REMARK  257  A    between atoms: _608  and  _609
REMARK  258  A    between atoms: _612  and  _614
REMARK  259  A    between atoms: _614  and  _615
REMARK  260  A    between atoms: _614  and  _617
REMARK  261  A    between atoms: _617  and  _618
REMARK  262  A    between atoms: _620  and  _622
REMARK  263  A    between atoms: _622  and  _623
REMARK  264  A    between atoms: _622  and  _625
REMARK  265  A    between atoms: _625  and  _626
REMARK  266  A    between atoms: _626  and  _627
REMARK  267  A    between atoms: _627  and  _628
REMARK  268  A    between atoms: _637  and  _639
REMARK  269  A    between atoms: _639  and  _640
REMARK  270  A    between atoms: _639  and  _642
REMARK  271  A    between atoms: _642  and  _643
REMARK  272  A    between atoms: _648  and  _649
REMARK  273  A    between atoms: _651  and  _653
REMARK  274  A    between atoms: _653  and  _654
REMARK  275  A    between atoms: _653  and  _656
REMARK  276  A    between atoms: _656  and  _657
REMARK  277  A    between atoms: _657  and  _658
REMARK  278  A    between atoms: _660  and  _662
REMARK  279  A    between atoms: _662  and  _663
REMARK  280  A    between atoms: _662  and  _665
REMARK  281  A    between atoms: _665  and  _666
REMARK                            x       y       z     vdW  Elec       q    Type
REMARK                         _______ _______ _______ _____ _____    ______ ____
ROOT
ATOM      1  O   HOH     1     -32.184 -25.298  12.909  0.00  0.00    +0.000 OA
ENDROOT
TORSDOF 0
REMARK  Name = ../refined-set-2016/4k9y/4k9y_pocket.pdb
REMARK  281 active torsions:
REMARK  status: ('A' for Active; 'I' for Inactive)
REMARK    1  A    between atoms: _1  and  _3
REMARK    2  A    between atoms: _3  and  _4
REMARK    3  A    between atoms: _3  and  _6
REMARK    4  A    between atoms: _6  and  _7
REMARK    5  A    between atoms: _7  and  _8
REMARK    6  A    between atoms: _8  and  _9
REMARK    7  A    between atoms: _18  and  _20
REMARK    8  A    between atoms: _20  and  _21
REMARK    9  A    between atoms: _20  and  _23
REMARK   10  A    between atoms: _23  and  _24
REMARK   11  A    between atoms: _27  and  _29
REMARK   12  A    between atoms: _29  and  _30
REMARK   13  A    between atoms: _32  and  _34
REMARK   14  A    between atoms: _34  and  _35
REMARK   15  A    between atoms: _34  and  _37
REMARK   16  A    between atoms: _37  and  _38
REMARK   17  A    between atoms: _38  and  _39
REMARK   18  A    between atoms: _42  and  _44
REMARK   19  A    between atoms: _44  and  _45
REMARK   20  A    between atoms: _44  and  _47
REMARK   21  A    between atoms: _47  and  _48
REMARK   22  A    between atoms: _54  and  _56
REMARK   23  A    between atoms: _56  and  _57
REMARK   24  A    between atoms: _56  and  _59
REMARK   25  A    between atoms: _62  and  _64
REMARK   26  A    between atoms: _64  and  _65
REMARK   27  A    between atoms: _64  and  _67
REMARK   28  A    between atoms: _67  and  _68
REMARK   29  A    between atoms: _73  and  _75
REMARK   30  A    between atoms: _75  and  _76
REMARK   31  A    between atoms: _75  and  _78
REMARK   32  A    between atoms: _78  and  _79
REMARK   33  A    between atoms: _79  and  _80
REMARK   34  A    between atoms: _85  and  _87
REMARK   35  A    between atoms: _87  and  _88
REMARK   36  A    between atoms: _91  and  _93
REMARK   37  A    between atoms: _93  and  _94
REMARK   38  A    between atoms: _93  and  _96
REMARK   39  A    between atoms: _99  and  _101
REMARK   40  A    between atoms: _101  and  _102
REMARK   41  A    between atoms: _105  and  _107
REMARK   42  A    between atoms: _107  and  _108
REMARK   43  A    between atoms: _107  and  _110
REMARK   44  A    between atoms: _110  and  _111
REMARK   45  A    between atoms: _114  and  _116
REMARK   46  A    between atoms: _116  and  _117
REMARK   47  A    between atoms: _116  and  _119
REMARK   48  A    between atoms: _119  and  _120
REMARK   49  A    between atoms: _120  and  _121
REMARK   50  A    between atoms: _121  and  _122
REMARK   51  A    between atoms: _122  and  _123
REMARK   52  A    between atoms: _127  and  _129
REMARK   53  A    between atoms: _129  and  _130
REMARK   54  A    between atoms: _129  and  _132
REMARK   55  A    between atoms: _132  and  _133
REMARK   56  A    between atoms: _133  and  _134
REMARK   57  A    between atoms: _134  and  _135
REMARK   58  A    between atoms: _135  and  _136
REMARK   59  A    between atoms: _140  and  _142
REMARK   60  A    between atoms: _142  and  _143
REMARK   61  A    between atoms: _142  and  _145
REMARK   62  A    between atoms: _145  and  _146
REMARK   63  A    between atoms: _152  and  _154
REMARK   64  A    between atoms: _154  and  _155
REMARK   65  A    between atoms: _154  and  _157
REMARK   66  A    between atoms: _157  and  _158
REMARK   67  A    between atoms: _161  and  _163
REMARK   68  A    between atoms: _163  and  _164
REMARK   69  A    between atoms: _163  and  _166
REMARK   70  A    between atoms: _166  and  _167
REMARK   71  A    between atoms: _167  and  _168
REMARK   72  A    between atoms: _173  and  _175
REMARK   73  A    between atoms: _175  and  _176
REMARK   74  A    between atoms: _175  and  _178
REMARK   75  A    between atoms: _178  and  _179
REMARK   76  A    between atoms: _179  and  _180
REMARK   77  A    between atoms: _183  and  _185
REMARK   78  A    between atoms: _185  and  _186
REMARK   79  A    between atoms: _189  and  _191
REMARK   80  A    between atoms: _191  and  _192
REMARK   81  A    between atoms: _191  and  _194
REMARK   82  A    between atoms: _194  and  _195
REMARK   83  A    between atoms: _198  and  _200
REMARK   84  A    between atoms: _200  and  _201
REMARK   85  A    between atoms: _200  and  _203
REMARK   86  A    between atoms: _203  and  _204
REMARK   87  A    between atoms: _207  and  _209
REMARK   88  A    between atoms: _209  and  _210
REMARK   89  A    between atoms: _209  and  _212
REMARK   90  A    between atoms: _212  and  _213
REMARK   91  A    between atoms: _213  and  _214
REMARK   92  A    between atoms: _216  and  _218
REMARK   93  A    between atoms: _218  and  _219
REMARK   94  A    between atoms: _218  and  _221
REMARK   95  A    between atoms: _221  and  _222
REMARK   96  A    between atoms: _222  and  _223
REMARK   97  A    between atoms: _223  and  _224
REMARK   98  A    between atoms: _233  and  _235
REMARK   99  A    between atoms: _235  and  _236
REMARK  100  A    between atoms: _235  and  _238
REMARK  101  A    between atoms: _238  and  _239
REMARK  102  A    between atoms: _239  and  _240
REMARK  103  A    between atoms: _245  and  _247
REMARK  104  A    between atoms: _247  and  _248
REMARK  105  A    between atoms: _247  and  _250
REMARK  106  A    between atoms: _250  and  _251
REMARK  107  A    between atoms: _257  and  _259
REMARK  108  A    between atoms: _259  and  _260
REMARK  109  A    between atoms: _259  and  _262
REMARK  110  A    between atoms: _262  and  _263
REMARK  111  A    between atoms: _266  and  _268
REMARK  112  A    between atoms: _268  and  _269
REMARK  113  A    between atoms: _268  and  _271
REMARK  114  A    between atoms: _271  and  _272
REMARK  115  A    between atoms: _277  and  _279
REMARK  116  A    between atoms: _279  and  _280
REMARK  117  A    between atoms: _279  and  _282
REMARK  118  A    between atoms: _282  and  _283
REMARK  119  A    between atoms: _286  and  _288
REMARK  120  A    between atoms: _288  and  _289
REMARK  121  A    between atoms: _288  and  _291
REMARK  122  A    between atoms: _294  and  _296
REMARK  123  A    between atoms: _296  and  _297
REMARK  124  A    between atoms: _296  and  _299
REMARK  125  A    between atoms: _299  and  _300
REMARK  126  A    between atoms: _300  and  _301
REMARK  127  A    between atoms: _301  and  _302
REMARK  128  A    between atoms: _302  and  _303
REMARK  129  A    between atoms: _307  and  _309
REMARK  130  A    between atoms: _309  and  _310
REMARK  131  A    between atoms: _309  and  _312
REMARK  132  A    between atoms: _312  and  _313
REMARK  133  A    between atoms: _316  and  _318
REMARK  134  A    between atoms: _318  and  _319
REMARK  135  A    between atoms: _318  and  _321
REMARK  136  A    between atoms: _321  and  _322
REMARK  137  A    between atoms: _325  and  _327
REMARK  138  A    between atoms: _327  and  _328
REMARK  139  A    between atoms: _327  and  _330
REMARK  140  A    between atoms: _330  and  _331
REMARK  141  A    between atoms: _334  and  _336
REMARK  142  A    between atoms: _336  and  _337
REMARK  143  A    between atoms: _336  and  _339
REMARK  144  A    between atoms: _339  and  _340
REMARK  145  A    between atoms: _340  and  _341
REMARK  146  A    between atoms: _343  and  _345
REMARK  147  A    between atoms: _345  and  _346
REMARK  148  A    between atoms: _345  and  _348
REMARK  149  A    between atoms: _348  and  _349
REMARK  150  A    between atoms: _349  and  _350
REMARK  151  A    between atoms: _353  and  _355
REMARK  152  A    between atoms: _355  and  _356
REMARK  153  A    between atoms: _355  and  _358
REMARK  154  A    between atoms: _358  and  _359
REMARK  155  A    between atoms: _362  and  _364
REMARK  156  A    between atoms: _364  and  _365
REMARK  157  A    between atoms: _364  and  _367
REMARK  158  A    between atoms: _369  and  _371
REMARK  159  A    between atoms: _371  and  _372
REMARK  160  A    between atoms: _371  and  _374
REMARK  161  A    between atoms: _374  and  _375
REMARK  162  A    between atoms: _378  and  _380
REMARK  163  A    between atoms: _380  and  _381
REMARK  164  A    between atoms: _380  and  _383
REMARK  165  A    between atoms: _383  and  _384
REMARK  166  A    between atoms: _387  and  _389
REMARK  167  A    between atoms: _389  and  _390
REMARK  168  A    between atoms: _392  and  _394
REMARK  169  A    between atoms: _394  and  _395
REMARK  170  A    between atoms: _394  and  _397
REMARK  171  A    between atoms: _397  and  _398
REMARK  172  A    between atoms: _398  and  _399
REMARK  173  A    between atoms: _402  and  _404
REMARK  174  A    between atoms: _404  and  _405
REMARK  175  A    between atoms: _408  and  _410
REMARK  176  A    between atoms: _410  and  _411
REMARK  177  A    between atoms: _410  and  _413
REMARK  178  A    between atoms: _413  and  _414
REMARK  179  A    between atoms: _417  and  _419
REMARK  180  A    between atoms: _419  and  _420
REMARK  181  A    between atoms: _419  and  _422
REMARK  182  A    between atoms: _422  and  _423
REMARK  183  A    between atoms: _428  and  _429
REMARK  184  A    between atoms: _431  and  _433
REMARK  185  A    between atoms: _433  and  _434
REMARK  186  A    between atoms: _433  and  _436
REMARK  187  A    between atoms: _436  and  _437
REMARK  188  A    between atoms: _440  and  _442
REMARK  189  A    between atoms: _442  and  _443
REMARK  190  A    between atoms: _442  and  _445
REMARK  191  A    between atoms: _445  and  _446
REMARK  192  A    between atoms: _452  and  _454
REMARK  193  A    between atoms: _454  and  _455
REMARK  194  A    between atoms: _454  and  _457
REMARK  195  A    between atoms: _460  and  _462
REMARK  196  A    between atoms: _462  and  _463
REMARK  197  A    between atoms: _462  and  _465
REMARK  198  A    between atoms: _465  and  _466
REMARK  199  A    between atoms: _471  and  _473
REMARK  200  A    between atoms: _473  and  _474
REMARK  201  A    between atoms: _473  and  _476
REMARK  202  A    between atoms: _476  and  _477
REMARK  203  A    between atoms: _477  and  _478
REMARK  204  A    between atoms: _478  and  _479
REMARK  205  A    between atoms: _488  and  _490
REMARK  206  A    between atoms: _490  and  _491
REMARK  207  A    between atoms: _490  and  _493
REMARK  208  A    between atoms: _493  and  _494
REMARK  209  A    between atoms: _497  and  _499
REMARK  210  A    between atoms: _499  and  _500
REMARK  211  A    between atoms: _499  and  _502
REMARK  212  A    between atoms: _502  and  _503
REMARK  213  A    between atoms: _506  and  _508
REMARK  214  A    between atoms: _508  and  _509
REMARK  215  A    between atoms: _508  and  _511
REMARK  216  A    between atoms: _511  and  _512
REMARK  217  A    between atoms: _517  and  _519
REMARK  218  A    between atoms: _519  and  _520
REMARK  219  A    between atoms: _519  and  _522
REMARK  220  A    between atoms: _525  and  _527
REMARK  221  A    between atoms: _527  and  _528
REMARK  222  A    between atoms: _527  and  _530
REMARK  223  A    between atoms: _530  and  _531
REMARK  224  A    between atoms: _534  and  _536
REMARK  225  A    between atoms: _536  and  _537
REMARK  226  A    between atoms: _536  and  _539
REMARK  227  A    between atoms: _542  and  _544
REMARK  228  A    between atoms: _544  and  _545
REMARK  229  A    between atoms: _544  and  _547
REMARK  230  A    between atoms: _547  and  _548
REMARK  231  A    between atoms: _550  and  _552
REMARK  232  A    between atoms: _552  and  _553
REMARK  233  A    between atoms: _552  and  _555
REMARK  234  A    between atoms: _555  and  _556
REMARK  235  A    between atoms: _556  and  _557
REMARK  236  A    between atoms: _557  and  _558
REMARK  237  A    between atoms: _558  and  _559
REMARK  238  A    between atoms: _563  and  _565
REMARK  239  A    between atoms: _565  and  _566
REMARK  240  A    between atoms: _565  and  _568
REMARK  241  A    between atoms: _568  and  _569
REMARK  242  A    between atoms: _572  and  _574
REMARK  243  A    between atoms: _574  and  _575
REMARK  244  A    between atoms: _577  and  _579
REMARK  245  A    between atoms: _579  and  _580
REMARK  246  A    between atoms: _579  and  _582
REMARK  247  A    between atoms: _582  and  _583
REMARK  248  A    between atoms: _586  and  _588
REMARK  249  A    between atoms: _588  and  _589
REMARK  250  A    between atoms: _588  and  _591
REMARK  251  A    between atoms: _591  and  _592
REMARK  252  A    between atoms: _598  and  _600
REMARK  253  A    between atoms: _600  and  _601
REMARK  254  A    between atoms: _603  and  _605
REMARK  255  A    between atoms: _605  and  _606
REMARK  256  A    between atoms: _605  and  _608
REMARK  257  A    between atoms: _608  and  _609
REMARK  258  A    between atoms: _612  and  _614
REMARK  259  A    between atoms: _614  and  _615
REMARK  260  A    between atoms: _614  and  _617
REMARK  261  A    between atoms: _617  and  _618
REMARK  262  A    between atoms: _620  and  _622
REMARK  263  A    between atoms: _622  and  _623
REMARK  264  A    between atoms: _622  and  _625
REMARK  265  A    between atoms: _625  and  _626
REMARK  266  A    between atoms: _626  and  _627
REMARK  267  A    between atoms: _627  and  _628
REMARK  268  A    between atoms: _637  and  _639
REMARK  269  A    between atoms: _639  and  _640
REMARK  270  A    between atoms: _639  and  _642
REMARK  271  A    between atoms: _642  and  _643
REMARK  272  A    between atoms: _648  and  _649
REMARK  273  A    between atoms: _651  and  _653
REMARK  274  A    between atoms: _653  and  _654
REMARK  275  A    between atoms: _653  and  _656
REMARK  276  A    between atoms: _656  and  _657
REMARK  277  A    between atoms: _657  and  _658
REMARK  278  A    between atoms: _660  and  _662
REMARK  279  A    between atoms: _662  and  _663
REMARK  280  A    between atoms: _662  and  _665
REMARK  281  A    between atoms: _665  and  _666
REMARK                            x       y       z     vdW  Elec       q    Type
REMARK                         _______ _______ _______ _____ _____    ______ ____
ROOT
ATOM      1  O   HOH     1     -30.857 -27.093   9.214  0.00  0.00    +0.000 OA
ENDROOT
TORSDOF 0
REMARK  Name = ../refined-set-2016/4k9y/4k9y_pocket.pdb
REMARK  281 active torsions:
REMARK  status: ('A' for Active; 'I' for Inactive)
REMARK    1  A    between atoms: _1  and  _3
REMARK    2  A    between atoms: _3  and  _4
REMARK    3  A    between atoms: _3  and  _6
REMARK    4  A    between atoms: _6  and  _7
REMARK    5  A    between atoms: _7  and  _8
REMARK    6  A    between atoms: _8  and  _9
REMARK    7  A    between atoms: _18  and  _20
REMARK    8  A    between atoms: _20  and  _21
REMARK    9  A    between atoms: _20  and  _23
REMARK   10  A    between atoms: _23  and  _24
REMARK   11  A    between atoms: _27  and  _29
REMARK   12  A    between atoms: _29  and  _30
REMARK   13  A    between atoms: _32  and  _34
REMARK   14  A    between atoms: _34  and  _35
REMARK   15  A    between atoms: _34  and  _37
REMARK   16  A    between atoms: _37  and  _38
REMARK   17  A    between atoms: _38  and  _39
REMARK   18  A    between atoms: _42  and  _44
REMARK   19  A    between atoms: _44  and  _45
REMARK   20  A    between atoms: _44  and  _47
REMARK   21  A    between atoms: _47  and  _48
REMARK   22  A    between atoms: _54  and  _56
REMARK   23  A    between atoms: _56  and  _57
REMARK   24  A    between atoms: _56  and  _59
REMARK   25  A    between atoms: _62  and  _64
REMARK   26  A    between atoms: _64  and  _65
REMARK   27  A    between atoms: _64  and  _67
REMARK   28  A    between atoms: _67  and  _68
REMARK   29  A    between atoms: _73  and  _75
REMARK   30  A    between atoms: _75  and  _76
REMARK   31  A    between atoms: _75  and  _78
REMARK   32  A    between atoms: _78  and  _79
REMARK   33  A    between atoms: _79  and  _80
REMARK   34  A    between atoms: _85  and  _87
REMARK   35  A    between atoms: _87  and  _88
REMARK   36  A    between atoms: _91  and  _93
REMARK   37  A    between atoms: _93  and  _94
REMARK   38  A    between atoms: _93  and  _96
REMARK   39  A    between atoms: _99  and  _101
REMARK   40  A    between atoms: _101  and  _102
REMARK   41  A    between atoms: _105  and  _107
REMARK   42  A    between atoms: _107  and  _108
REMARK   43  A    between atoms: _107  and  _110
REMARK   44  A    between atoms: _110  and  _111
REMARK   45  A    between atoms: _114  and  _116
REMARK   46  A    between atoms: _116  and  _117
REMARK   47  A    between atoms: _116  and  _119
REMARK   48  A    between atoms: _119  and  _120
REMARK   49  A    between atoms: _120  and  _121
REMARK   50  A    between atoms: _121  and  _122
REMARK   51  A    between atoms: _122  and  _123
REMARK   52  A    between atoms: _127  and  _129
REMARK   53  A    between atoms: _129  and  _130
REMARK   54  A    between atoms: _129  and  _132
REMARK   55  A    between atoms: _132  and  _133
REMARK   56  A    between atoms: _133  and  _134
REMARK   57  A    between atoms: _134  and  _135
REMARK   58  A    between atoms: _135  and  _136
REMARK   59  A    between atoms: _140  and  _142
REMARK   60  A    between atoms: _142  and  _143
REMARK   61  A    between atoms: _142  and  _145
REMARK   62  A    between atoms: _145  and  _146
REMARK   63  A    between atoms: _152  and  _154
REMARK   64  A    between atoms: _154  and  _155
REMARK   65  A    between atoms: _154  and  _157
REMARK   66  A    between atoms: _157  and  _158
REMARK   67  A    between atoms: _161  and  _163
REMARK   68  A    between atoms: _163  and  _164
REMARK   69  A    between atoms: _163  and  _166
REMARK   70  A    between atoms: _166  and  _167
REMARK   71  A    between atoms: _167  and  _168
REMARK   72  A    between atoms: _173  and  _175
REMARK   73  A    between atoms: _175  and  _176
REMARK   74  A    between atoms: _175  and  _178
REMARK   75  A    between atoms: _178  and  _179
REMARK   76  A    between atoms: _179  and  _180
REMARK   77  A    between atoms: _183  and  _185
REMARK   78  A    between atoms: _185  and  _186
REMARK   79  A    between atoms: _189  and  _191
REMARK   80  A    between atoms: _191  and  _192
REMARK   81  A    between atoms: _191  and  _194
REMARK   82  A    between atoms: _194  and  _195
REMARK   83  A    between atoms: _198  and  _200
REMARK   84  A    between atoms: _200  and  _201
REMARK   85  A    between atoms: _200  and  _203
REMARK   86  A    between atoms: _203  and  _204
REMARK   87  A    between atoms: _207  and  _209
REMARK   88  A    between atoms: _209  and  _210
REMARK   89  A    between atoms: _209  and  _212
REMARK   90  A    between atoms: _212  and  _213
REMARK   91  A    between atoms: _213  and  _214
REMARK   92  A    between atoms: _216  and  _218
REMARK   93  A    between atoms: _218  and  _219
REMARK   94  A    between atoms: _218  and  _221
REMARK   95  A    between atoms: _221  and  _222
REMARK   96  A    between atoms: _222  and  _223
REMARK   97  A    between atoms: _223  and  _224
REMARK   98  A    between atoms: _233  and  _235
REMARK   99  A    between atoms: _235  and  _236
REMARK  100  A    between atoms: _235  and  _238
REMARK  101  A    between atoms: _238  and  _239
REMARK  102  A    between atoms: _239  and  _240
REMARK  103  A    between atoms: _245  and  _247
REMARK  104  A    between atoms: _247  and  _248
REMARK  105  A    between atoms: _247  and  _250
REMARK  106  A    between atoms: _250  and  _251
REMARK  107  A    between atoms: _257  and  _259
REMARK  108  A    between atoms: _259  and  _260
REMARK  109  A    between atoms: _259  and  _262
REMARK  110  A    between atoms: _262  and  _263
REMARK  111  A    between atoms: _266  and  _268
REMARK  112  A    between atoms: _268  and  _269
REMARK  113  A    between atoms: _268  and  _271
REMARK  114  A    between atoms: _271  and  _272
REMARK  115  A    between atoms: _277  and  _279
REMARK  116  A    between atoms: _279  and  _280
REMARK  117  A    between atoms: _279  and  _282
REMARK  118  A    between atoms: _282  and  _283
REMARK  119  A    between atoms: _286  and  _288
REMARK  120  A    between atoms: _288  and  _289
REMARK  121  A    between atoms: _288  and  _291
REMARK  122  A    between atoms: _294  and  _296
REMARK  123  A    between atoms: _296  and  _297
REMARK  124  A    between atoms: _296  and  _299
REMARK  125  A    between atoms: _299  and  _300
REMARK  126  A    between atoms: _300  and  _301
REMARK  127  A    between atoms: _301  and  _302
REMARK  128  A    between atoms: _302  and  _303
REMARK  129  A    between atoms: _307  and  _309
REMARK  130  A    between atoms: _309  and  _310
REMARK  131  A    between atoms: _309  and  _312
REMARK  132  A    between atoms: _312  and  _313
REMARK  133  A    between atoms: _316  and  _318
REMARK  134  A    between atoms: _318  and  _319
REMARK  135  A    between atoms: _318  and  _321
REMARK  136  A    between atoms: _321  and  _322
REMARK  137  A    between atoms: _325  and  _327
REMARK  138  A    between atoms: _327  and  _328
REMARK  139  A    between atoms: _327  and  _330
REMARK  140  A    between atoms: _330  and  _331
REMARK  141  A    between atoms: _334  and  _336
REMARK  142  A    between atoms: _336  and  _337
REMARK  143  A    between atoms: _336  and  _339
REMARK  144  A    between atoms: _339  and  _340
REMARK  145  A    between atoms: _340  and  _341
REMARK  146  A    between atoms: _343  and  _345
REMARK  147  A    between atoms: _345  and  _346
REMARK  148  A    between atoms: _345  and  _348
REMARK  149  A    between atoms: _348  and  _349
REMARK  150  A    between atoms: _349  and  _350
REMARK  151  A    between atoms: _353  and  _355
REMARK  152  A    between atoms: _355  and  _356
REMARK  153  A    between atoms: _355  and  _358
REMARK  154  A    between atoms: _358  and  _359
REMARK  155  A    between atoms: _362  and  _364
REMARK  156  A    between atoms: _364  and  _365
REMARK  157  A    between atoms: _364  and  _367
REMARK  158  A    between atoms: _369  and  _371
REMARK  159  A    between atoms: _371  and  _372
REMARK  160  A    between atoms: _371  and  _374
REMARK  161  A    between atoms: _374  and  _375
REMARK  162  A    between atoms: _378  and  _380
REMARK  163  A    between atoms: _380  and  _381
REMARK  164  A    between atoms: _380  and  _383
REMARK  165  A    between atoms: _383  and  _384
REMARK  166  A    between atoms: _387  and  _389
REMARK  167  A    between atoms: _389  and  _390
REMARK  168  A    between atoms: _392  and  _394
REMARK  169  A    between atoms: _394  and  _395
REMARK  170  A    between atoms: _394  and  _397
REMARK  171  A    between atoms: _397  and  _398
REMARK  172  A    between atoms: _398  and  _399
REMARK  173  A    between atoms: _402  and  _404
REMARK  174  A    between atoms: _404  and  _405
REMARK  175  A    between atoms: _408  and  _410
REMARK  176  A    between atoms: _410  and  _411
REMARK  177  A    between atoms: _410  and  _413
REMARK  178  A    between atoms: _413  and  _414
REMARK  179  A    between atoms: _417  and  _419
REMARK  180  A    between atoms: _419  and  _420
REMARK  181  A    between atoms: _419  and  _422
REMARK  182  A    between atoms: _422  and  _423
REMARK  183  A    between atoms: _428  and  _429
REMARK  184  A    between atoms: _431  and  _433
REMARK  185  A    between atoms: _433  and  _434
REMARK  186  A    between atoms: _433  and  _436
REMARK  187  A    between atoms: _436  and  _437
REMARK  188  A    between atoms: _440  and  _442
REMARK  189  A    between atoms: _442  and  _443
REMARK  190  A    between atoms: _442  and  _445
REMARK  191  A    between atoms: _445  and  _446
REMARK  192  A    between atoms: _452  and  _454
REMARK  193  A    between atoms: _454  and  _455
REMARK  194  A    between atoms: _454  and  _457
REMARK  195  A    between atoms: _460  and  _462
REMARK  196  A    between atoms: _462  and  _463
REMARK  197  A    between atoms: _462  and  _465
REMARK  198  A    between atoms: _465  and  _466
REMARK  199  A    between atoms: _471  and  _473
REMARK  200  A    between atoms: _473  and  _474
REMARK  201  A    between atoms: _473  and  _476
REMARK  202  A    between atoms: _476  and  _477
REMARK  203  A    between atoms: _477  and  _478
REMARK  204  A    between atoms: _478  and  _479
REMARK  205  A    between atoms: _488  and  _490
REMARK  206  A    between atoms: _490  and  _491
REMARK  207  A    between atoms: _490  and  _493
REMARK  208  A    between atoms: _493  and  _494
REMARK  209  A    between atoms: _497  and  _499
REMARK  210  A    between atoms: _499  and  _500
REMARK  211  A    between atoms: _499  and  _502
REMARK  212  A    between atoms: _502  and  _503
REMARK  213  A    between atoms: _506  and  _508
REMARK  214  A    between atoms: _508  and  _509
REMARK  215  A    between atoms: _508  and  _511
REMARK  216  A    between atoms: _511  and  _512
REMARK  217  A    between atoms: _517  and  _519
REMARK  218  A    between atoms: _519  and  _520
REMARK  219  A    between atoms: _519  and  _522
REMARK  220  A    between atoms: _525  and  _527
REMARK  221  A    between atoms: _527  and  _528
REMARK  222  A    between atoms: _527  and  _530
REMARK  223  A    between atoms: _530  and  _531
REMARK  224  A    between atoms: _534  and  _536
REMARK  225  A    between atoms: _536  and  _537
REMARK  226  A    between atoms: _536  and  _539
REMARK  227  A    between atoms: _542  and  _544
REMARK  228  A    between atoms: _544  and  _545
REMARK  229  A    between atoms: _544  and  _547
REMARK  230  A    between atoms: _547  and  _548
REMARK  231  A    between atoms: _550  and  _552
REMARK  232  A    between atoms: _552  and  _553
REMARK  233  A    between atoms: _552  and  _555
REMARK  234  A    between atoms: _555  and  _556
REMARK  235  A    between atoms: _556  and  _557
REMARK  236  A    between atoms: _557  and  _558
REMARK  237  A    between atoms: _558  and  _559
REMARK  238  A    between atoms: _563  and  _565
REMARK  239  A    between atoms: _565  and  _566
REMARK  240  A    between atoms: _565  and  _568
REMARK  241  A    between atoms: _568  and  _569
REMARK  242  A    between atoms: _572  and  _574
REMARK  243  A    between atoms: _574  and  _575
REMARK  244  A    between atoms: _577  and  _579
REMARK  245  A    between atoms: _579  and  _580
REMARK  246  A    between atoms: _579  and  _582
REMARK  247  A    between atoms: _582  and  _583
REMARK  248  A    between atoms: _586  and  _588
REMARK  249  A    between atoms: _588  and  _589
REMARK  250  A    between atoms: _588  and  _591
REMARK  251  A    between atoms: _591  and  _592
REMARK  252  A    between atoms: _598  and  _600
REMARK  253  A    between atoms: _600  and  _601
REMARK  254  A    between atoms: _603  and  _605
REMARK  255  A    between atoms: _605  and  _606
REMARK  256  A    between atoms: _605  and  _608
REMARK  257  A    between atoms: _608  and  _609
REMARK  258  A    between atoms: _612  and  _614
REMARK  259  A    between atoms: _614  and  _615
REMARK  260  A    between atoms: _614  and  _617
REMARK  261  A    between atoms: _617  and  _618
REMARK  262  A    between atoms: _620  and  _622
REMARK  263  A    between atoms: _622  and  _623
REMARK  264  A    between atoms: _622  and  _625
REMARK  265  A    between atoms: _625  and  _626
REMARK  266  A    between atoms: _626  and  _627
REMARK  267  A    between atoms: _627  and  _628
REMARK  268  A    between atoms: _637  and  _639
REMARK  269  A    between atoms: _639  and  _640
REMARK  270  A    between atoms: _639  and  _642
REMARK  271  A    between atoms: _642  and  _643
REMARK  272  A    between atoms: _648  and  _649
REMARK  273  A    between atoms: _651  and  _653
REMARK  274  A    between atoms: _653  and  _654
REMARK  275  A    between atoms: _653  and  _656
REMARK  276  A    between atoms: _656  and  _657
REMARK  277  A    between atoms: _657  and  _658
REMARK  278  A    between atoms: _660  and  _662
REMARK  279  A    between atoms: _662  and  _663
REMARK  280  A    between atoms: _662  and  _665
REMARK  281  A    between atoms: _665  and  _666
REMARK                            x       y       z     vdW  Elec       q    Type
REMARK                         _______ _______ _______ _____ _____    ______ ____
ROOT
ATOM      1  O   HOH     1     -28.891 -24.467   7.770  0.00  0.00    +0.000 OA
ENDROOT
TORSDOF 0
REMARK  Name = ../refined-set-2016/4k9y/4k9y_pocket.pdb
REMARK  281 active torsions:
REMARK  status: ('A' for Active; 'I' for Inactive)
REMARK    1  A    between atoms: _1  and  _3
REMARK    2  A    between atoms: _3  and  _4
REMARK    3  A    between atoms: _3  and  _6
REMARK    4  A    between atoms: _6  and  _7
REMARK    5  A    between atoms: _7  and  _8
REMARK    6  A    between atoms: _8  and  _9
REMARK    7  A    between atoms: _18  and  _20
REMARK    8  A    between atoms: _20  and  _21
REMARK    9  A    between atoms: _20  and  _23
REMARK   10  A    between atoms: _23  and  _24
REMARK   11  A    between atoms: _27  and  _29
REMARK   12  A    between atoms: _29  and  _30
REMARK   13  A    between atoms: _32  and  _34
REMARK   14  A    between atoms: _34  and  _35
REMARK   15  A    between atoms: _34  and  _37
REMARK   16  A    between atoms: _37  and  _38
REMARK   17  A    between atoms: _38  and  _39
REMARK   18  A    between atoms: _42  and  _44
REMARK   19  A    between atoms: _44  and  _45
REMARK   20  A    between atoms: _44  and  _47
REMARK   21  A    between atoms: _47  and  _48
REMARK   22  A    between atoms: _54  and  _56
REMARK   23  A    between atoms: _56  and  _57
REMARK   24  A    between atoms: _56  and  _59
REMARK   25  A    between atoms: _62  and  _64
REMARK   26  A    between atoms: _64  and  _65
REMARK   27  A    between atoms: _64  and  _67
REMARK   28  A    between atoms: _67  and  _68
REMARK   29  A    between atoms: _73  and  _75
REMARK   30  A    between atoms: _75  and  _76
REMARK   31  A    between atoms: _75  and  _78
REMARK   32  A    between atoms: _78  and  _79
REMARK   33  A    between atoms: _79  and  _80
REMARK   34  A    between atoms: _85  and  _87
REMARK   35  A    between atoms: _87  and  _88
REMARK   36  A    between atoms: _91  and  _93
REMARK   37  A    between atoms: _93  and  _94
REMARK   38  A    between atoms: _93  and  _96
REMARK   39  A    between atoms: _99  and  _101
REMARK   40  A    between atoms: _101  and  _102
REMARK   41  A    between atoms: _105  and  _107
REMARK   42  A    between atoms: _107  and  _108
REMARK   43  A    between atoms: _107  and  _110
REMARK   44  A    between atoms: _110  and  _111
REMARK   45  A    between atoms: _114  and  _116
REMARK   46  A    between atoms: _116  and  _117
REMARK   47  A    between atoms: _116  and  _119
REMARK   48  A    between atoms: _119  and  _120
REMARK   49  A    between atoms: _120  and  _121
REMARK   50  A    between atoms: _121  and  _122
REMARK   51  A    between atoms: _122  and  _123
REMARK   52  A    between atoms: _127  and  _129
REMARK   53  A    between atoms: _129  and  _130
REMARK   54  A    between atoms: _129  and  _132
REMARK   55  A    between atoms: _132  and  _133
REMARK   56  A    between atoms: _133  and  _134
REMARK   57  A    between atoms: _134  and  _135
REMARK   58  A    between atoms: _135  and  _136
REMARK   59  A    between atoms: _140  and  _142
REMARK   60  A    between atoms: _142  and  _143
REMARK   61  A    between atoms: _142  and  _145
REMARK   62  A    between atoms: _145  and  _146
REMARK   63  A    between atoms: _152  and  _154
REMARK   64  A    between atoms: _154  and  _155
REMARK   65  A    between atoms: _154  and  _157
REMARK   66  A    between atoms: _157  and  _158
REMARK   67  A    between atoms: _161  and  _163
REMARK   68  A    between atoms: _163  and  _164
REMARK   69  A    between atoms: _163  and  _166
REMARK   70  A    between atoms: _166  and  _167
REMARK   71  A    between atoms: _167  and  _168
REMARK   72  A    between atoms: _173  and  _175
REMARK   73  A    between atoms: _175  and  _176
REMARK   74  A    between atoms: _175  and  _178
REMARK   75  A    between atoms: _178  and  _179
REMARK   76  A    between atoms: _179  and  _180
REMARK   77  A    between atoms: _183  and  _185
REMARK   78  A    between atoms: _185  and  _186
REMARK   79  A    between atoms: _189  and  _191
REMARK   80  A    between atoms: _191  and  _192
REMARK   81  A    between atoms: _191  and  _194
REMARK   82  A    between atoms: _194  and  _195
REMARK   83  A    between atoms: _198  and  _200
REMARK   84  A    between atoms: _200  and  _201
REMARK   85  A    between atoms: _200  and  _203
REMARK   86  A    between atoms: _203  and  _204
REMARK   87  A    between atoms: _207  and  _209
REMARK   88  A    between atoms: _209  and  _210
REMARK   89  A    between atoms: _209  and  _212
REMARK   90  A    between atoms: _212  and  _213
REMARK   91  A    between atoms: _213  and  _214
REMARK   92  A    between atoms: _216  and  _218
REMARK   93  A    between atoms: _218  and  _219
REMARK   94  A    between atoms: _218  and  _221
REMARK   95  A    between atoms: _221  and  _222
REMARK   96  A    between atoms: _222  and  _223
REMARK   97  A    between atoms: _223  and  _224
REMARK   98  A    between atoms: _233  and  _235
REMARK   99  A    between atoms: _235  and  _236
REMARK  100  A    between atoms: _235  and  _238
REMARK  101  A    between atoms: _238  and  _239
REMARK  102  A    between atoms: _239  and  _240
REMARK  103  A    between atoms: _245  and  _247
REMARK  104  A    between atoms: _247  and  _248
REMARK  105  A    between atoms: _247  and  _250
REMARK  106  A    between atoms: _250  and  _251
REMARK  107  A    between atoms: _257  and  _259
REMARK  108  A    between atoms: _259  and  _260
REMARK  109  A    between atoms: _259  and  _262
REMARK  110  A    between atoms: _262  and  _263
REMARK  111  A    between atoms: _266  and  _268
REMARK  112  A    between atoms: _268  and  _269
REMARK  113  A    between atoms: _268  and  _271
REMARK  114  A    between atoms: _271  and  _272
REMARK  115  A    between atoms: _277  and  _279
REMARK  116  A    between atoms: _279  and  _280
REMARK  117  A    between atoms: _279  and  _282
REMARK  118  A    between atoms: _282  and  _283
REMARK  119  A    between atoms: _286  and  _288
REMARK  120  A    between atoms: _288  and  _289
REMARK  121  A    between atoms: _288  and  _291
REMARK  122  A    between atoms: _294  and  _296
REMARK  123  A    between atoms: _296  and  _297
REMARK  124  A    between atoms: _296  and  _299
REMARK  125  A    between atoms: _299  and  _300
REMARK  126  A    between atoms: _300  and  _301
REMARK  127  A    between atoms: _301  and  _302
REMARK  128  A    between atoms: _302  and  _303
REMARK  129  A    between atoms: _307  and  _309
REMARK  130  A    between atoms: _309  and  _310
REMARK  131  A    between atoms: _309  and  _312
REMARK  132  A    between atoms: _312  and  _313
REMARK  133  A    between atoms: _316  and  _318
REMARK  134  A    between atoms: _318  and  _319
REMARK  135  A    between atoms: _318  and  _321
REMARK  136  A    between atoms: _321  and  _322
REMARK  137  A    between atoms: _325  and  _327
REMARK  138  A    between atoms: _327  and  _328
REMARK  139  A    between atoms: _327  and  _330
REMARK  140  A    between atoms: _330  and  _331
REMARK  141  A    between atoms: _334  and  _336
REMARK  142  A    between atoms: _336  and  _337
REMARK  143  A    between atoms: _336  and  _339
REMARK  144  A    between atoms: _339  and  _340
REMARK  145  A    between atoms: _340  and  _341
REMARK  146  A    between atoms: _343  and  _345
REMARK  147  A    between atoms: _345  and  _346
REMARK  148  A    between atoms: _345  and  _348
REMARK  149  A    between atoms: _348  and  _349
REMARK  150  A    between atoms: _349  and  _350
REMARK  151  A    between atoms: _353  and  _355
REMARK  152  A    between atoms: _355  and  _356
REMARK  153  A    between atoms: _355  and  _358
REMARK  154  A    between atoms: _358  and  _359
REMARK  155  A    between atoms: _362  and  _364
REMARK  156  A    between atoms: _364  and  _365
REMARK  157  A    between atoms: _364  and  _367
REMARK  158  A    between atoms: _369  and  _371
REMARK  159  A    between atoms: _371  and  _372
REMARK  160  A    between atoms: _371  and  _374
REMARK  161  A    between atoms: _374  and  _375
REMARK  162  A    between atoms: _378  and  _380
REMARK  163  A    between atoms: _380  and  _381
REMARK  164  A    between atoms: _380  and  _383
REMARK  165  A    between atoms: _383  and  _384
REMARK  166  A    between atoms: _387  and  _389
REMARK  167  A    between atoms: _389  and  _390
REMARK  168  A    between atoms: _392  and  _394
REMARK  169  A    between atoms: _394  and  _395
REMARK  170  A    between atoms: _394  and  _397
REMARK  171  A    between atoms: _397  and  _398
REMARK  172  A    between atoms: _398  and  _399
REMARK  173  A    between atoms: _402  and  _404
REMARK  174  A    between atoms: _404  and  _405
REMARK  175  A    between atoms: _408  and  _410
REMARK  176  A    between atoms: _410  and  _411
REMARK  177  A    between atoms: _410  and  _413
REMARK  178  A    between atoms: _413  and  _414
REMARK  179  A    between atoms: _417  and  _419
REMARK  180  A    between atoms: _419  and  _420
REMARK  181  A    between atoms: _419  and  _422
REMARK  182  A    between atoms: _422  and  _423
REMARK  183  A    between atoms: _428  and  _429
REMARK  184  A    between atoms: _431  and  _433
REMARK  185  A    between atoms: _433  and  _434
REMARK  186  A    between atoms: _433  and  _436
REMARK  187  A    between atoms: _436  and  _437
REMARK  188  A    between atoms: _440  and  _442
REMARK  189  A    between atoms: _442  and  _443
REMARK  190  A    between atoms: _442  and  _445
REMARK  191  A    between atoms: _445  and  _446
REMARK  192  A    between atoms: _452  and  _454
REMARK  193  A    between atoms: _454  and  _455
REMARK  194  A    between atoms: _454  and  _457
REMARK  195  A    between atoms: _460  and  _462
REMARK  196  A    between atoms: _462  and  _463
REMARK  197  A    between atoms: _462  and  _465
REMARK  198  A    between atoms: _465  and  _466
REMARK  199  A    between atoms: _471  and  _473
REMARK  200  A    between atoms: _473  and  _474
REMARK  201  A    between atoms: _473  and  _476
REMARK  202  A    between atoms: _476  and  _477
REMARK  203  A    between atoms: _477  and  _478
REMARK  204  A    between atoms: _478  and  _479
REMARK  205  A    between atoms: _488  and  _490
REMARK  206  A    between atoms: _490  and  _491
REMARK  207  A    between atoms: _490  and  _493
REMARK  208  A    between atoms: _493  and  _494
REMARK  209  A    between atoms: _497  and  _499
REMARK  210  A    between atoms: _499  and  _500
REMARK  211  A    between atoms: _499  and  _502
REMARK  212  A    between atoms: _502  and  _503
REMARK  213  A    between atoms: _506  and  _508
REMARK  214  A    between atoms: _508  and  _509
REMARK  215  A    between atoms: _508  and  _511
REMARK  216  A    between atoms: _511  and  _512
REMARK  217  A    between atoms: _517  and  _519
REMARK  218  A    between atoms: _519  and  _520
REMARK  219  A    between atoms: _519  and  _522
REMARK  220  A    between atoms: _525  and  _527
REMARK  221  A    between atoms: _527  and  _528
REMARK  222  A    between atoms: _527  and  _530
REMARK  223  A    between atoms: _530  and  _531
REMARK  224  A    between atoms: _534  and  _536
REMARK  225  A    between atoms: _536  and  _537
REMARK  226  A    between atoms: _536  and  _539
REMARK  227  A    between atoms: _542  and  _544
REMARK  228  A    between atoms: _544  and  _545
REMARK  229  A    between atoms: _544  and  _547
REMARK  230  A    between atoms: _547  and  _548
REMARK  231  A    between atoms: _550  and  _552
REMARK  232  A    between atoms: _552  and  _553
REMARK  233  A    between atoms: _552  and  _555
REMARK  234  A    between atoms: _555  and  _556
REMARK  235  A    between atoms: _556  and  _557
REMARK  236  A    between atoms: _557  and  _558
REMARK  237  A    between atoms: _558  and  _559
REMARK  238  A    between atoms: _563  and  _565
REMARK  239  A    between atoms: _565  and  _566
REMARK  240  A    between atoms: _565  and  _568
REMARK  241  A    between atoms: _568  and  _569
REMARK  242  A    between atoms: _572  and  _574
REMARK  243  A    between atoms: _574  and  _575
REMARK  244  A    between atoms: _577  and  _579
REMARK  245  A    between atoms: _579  and  _580
REMARK  246  A    between atoms: _579  and  _582
REMARK  247  A    between atoms: _582  and  _583
REMARK  248  A    between atoms: _586  and  _588
REMARK  249  A    between atoms: _588  and  _589
REMARK  250  A    between atoms: _588  and  _591
REMARK  251  A    between atoms: _591  and  _592
REMARK  252  A    between atoms: _598  and  _600
REMARK  253  A    between atoms: _600  and  _601
REMARK  254  A    between atoms: _603  and  _605
REMARK  255  A    between atoms: _605  and  _606
REMARK  256  A    between atoms: _605  and  _608
REMARK  257  A    between atoms: _608  and  _609
REMARK  258  A    between atoms: _612  and  _614
REMARK  259  A    between atoms: _614  and  _615
REMARK  260  A    between atoms: _614  and  _617
REMARK  261  A    between atoms: _617  and  _618
REMARK  262  A    between atoms: _620  and  _622
REMARK  263  A    between atoms: _622  and  _623
REMARK  264  A    between atoms: _622  and  _625
REMARK  265  A    between atoms: _625  and  _626
REMARK  266  A    between atoms: _626  and  _627
REMARK  267  A    between atoms: _627  and  _628
REMARK  268  A    between atoms: _637  and  _639
REMARK  269  A    between atoms: _639  and  _640
REMARK  270  A    between atoms: _639  and  _642
REMARK  271  A    between atoms: _642  and  _643
REMARK  272  A    between atoms: _648  and  _649
REMARK  273  A    between atoms: _651  and  _653
REMARK  274  A    between atoms: _653  and  _654
REMARK  275  A    between atoms: _653  and  _656
REMARK  276  A    between atoms: _656  and  _657
REMARK  277  A    between atoms: _657  and  _658
REMARK  278  A    between atoms: _660  and  _662
REMARK  279  A    between atoms: _662  and  _663
REMARK  280  A    between atoms: _662  and  _665
REMARK  281  A    between atoms: _665  and  _666
REMARK                            x       y       z     vdW  Elec       q    Type
REMARK                         _______ _______ _______ _____ _____    ______ ____
ROOT
ATOM      1  O   HOH     1      -9.627 -26.971   3.281  0.00  0.00    +0.000 OA
ENDROOT
TORSDOF 0
REMARK  Name = ../refined-set-2016/4k9y/4k9y_pocket.pdb
REMARK  281 active torsions:
REMARK  status: ('A' for Active; 'I' for Inactive)
REMARK    1  A    between atoms: _1  and  _3
REMARK    2  A    between atoms: _3  and  _4
REMARK    3  A    between atoms: _3  and  _6
REMARK    4  A    between atoms: _6  and  _7
REMARK    5  A    between atoms: _7  and  _8
REMARK    6  A    between atoms: _8  and  _9
REMARK    7  A    between atoms: _18  and  _20
REMARK    8  A    between atoms: _20  and  _21
REMARK    9  A    between atoms: _20  and  _23
REMARK   10  A    between atoms: _23  and  _24
REMARK   11  A    between atoms: _27  and  _29
REMARK   12  A    between atoms: _29  and  _30
REMARK   13  A    between atoms: _32  and  _34
REMARK   14  A    between atoms: _34  and  _35
REMARK   15  A    between atoms: _34  and  _37
REMARK   16  A    between atoms: _37  and  _38
REMARK   17  A    between atoms: _38  and  _39
REMARK   18  A    between atoms: _42  and  _44
REMARK   19  A    between atoms: _44  and  _45
REMARK   20  A    between atoms: _44  and  _47
REMARK   21  A    between atoms: _47  and  _48
REMARK   22  A    between atoms: _54  and  _56
REMARK   23  A    between atoms: _56  and  _57
REMARK   24  A    between atoms: _56  and  _59
REMARK   25  A    between atoms: _62  and  _64
REMARK   26  A    between atoms: _64  and  _65
REMARK   27  A    between atoms: _64  and  _67
REMARK   28  A    between atoms: _67  and  _68
REMARK   29  A    between atoms: _73  and  _75
REMARK   30  A    between atoms: _75  and  _76
REMARK   31  A    between atoms: _75  and  _78
REMARK   32  A    between atoms: _78  and  _79
REMARK   33  A    between atoms: _79  and  _80
REMARK   34  A    between atoms: _85  and  _87
REMARK   35  A    between atoms: _87  and  _88
REMARK   36  A    between atoms: _91  and  _93
REMARK   37  A    between atoms: _93  and  _94
REMARK   38  A    between atoms: _93  and  _96
REMARK   39  A    between atoms: _99  and  _101
REMARK   40  A    between atoms: _101  and  _102
REMARK   41  A    between atoms: _105  and  _107
REMARK   42  A    between atoms: _107  and  _108
REMARK   43  A    between atoms: _107  and  _110
REMARK   44  A    between atoms: _110  and  _111
REMARK   45  A    between atoms: _114  and  _116
REMARK   46  A    between atoms: _116  and  _117
REMARK   47  A    between atoms: _116  and  _119
REMARK   48  A    between atoms: _119  and  _120
REMARK   49  A    between atoms: _120  and  _121
REMARK   50  A    between atoms: _121  and  _122
REMARK   51  A    between atoms: _122  and  _123
REMARK   52  A    between atoms: _127  and  _129
REMARK   53  A    between atoms: _129  and  _130
REMARK   54  A    between atoms: _129  and  _132
REMARK   55  A    between atoms: _132  and  _133
REMARK   56  A    between atoms: _133  and  _134
REMARK   57  A    between atoms: _134  and  _135
REMARK   58  A    between atoms: _135  and  _136
REMARK   59  A    between atoms: _140  and  _142
REMARK   60  A    between atoms: _142  and  _143
REMARK   61  A    between atoms: _142  and  _145
REMARK   62  A    between atoms: _145  and  _146
REMARK   63  A    between atoms: _152  and  _154
REMARK   64  A    between atoms: _154  and  _155
REMARK   65  A    between atoms: _154  and  _157
REMARK   66  A    between atoms: _157  and  _158
REMARK   67  A    between atoms: _161  and  _163
REMARK   68  A    between atoms: _163  and  _164
REMARK   69  A    between atoms: _163  and  _166
REMARK   70  A    between atoms: _166  and  _167
REMARK   71  A    between atoms: _167  and  _168
REMARK   72  A    between atoms: _173  and  _175
REMARK   73  A    between atoms: _175  and  _176
REMARK   74  A    between atoms: _175  and  _178
REMARK   75  A    between atoms: _178  and  _179
REMARK   76  A    between atoms: _179  and  _180
REMARK   77  A    between atoms: _183  and  _185
REMARK   78  A    between atoms: _185  and  _186
REMARK   79  A    between atoms: _189  and  _191
REMARK   80  A    between atoms: _191  and  _192
REMARK   81  A    between atoms: _191  and  _194
REMARK   82  A    between atoms: _194  and  _195
REMARK   83  A    between atoms: _198  and  _200
REMARK   84  A    between atoms: _200  and  _201
REMARK   85  A    between atoms: _200  and  _203
REMARK   86  A    between atoms: _203  and  _204
REMARK   87  A    between atoms: _207  and  _209
REMARK   88  A    between atoms: _209  and  _210
REMARK   89  A    between atoms: _209  and  _212
REMARK   90  A    between atoms: _212  and  _213
REMARK   91  A    between atoms: _213  and  _214
REMARK   92  A    between atoms: _216  and  _218
REMARK   93  A    between atoms: _218  and  _219
REMARK   94  A    between atoms: _218  and  _221
REMARK   95  A    between atoms: _221  and  _222
REMARK   96  A    between atoms: _222  and  _223
REMARK   97  A    between atoms: _223  and  _224
REMARK   98  A    between atoms: _233  and  _235
REMARK   99  A    between atoms: _235  and  _236
REMARK  100  A    between atoms: _235  and  _238
REMARK  101  A    between atoms: _238  and  _239
REMARK  102  A    between atoms: _239  and  _240
REMARK  103  A    between atoms: _245  and  _247
REMARK  104  A    between atoms: _247  and  _248
REMARK  105  A    between atoms: _247  and  _250
REMARK  106  A    between atoms: _250  and  _251
REMARK  107  A    between atoms: _257  and  _259
REMARK  108  A    between atoms: _259  and  _260
REMARK  109  A    between atoms: _259  and  _262
REMARK  110  A    between atoms: _262  and  _263
REMARK  111  A    between atoms: _266  and  _268
REMARK  112  A    between atoms: _268  and  _269
REMARK  113  A    between atoms: _268  and  _271
REMARK  114  A    between atoms: _271  and  _272
REMARK  115  A    between atoms: _277  and  _279
REMARK  116  A    between atoms: _279  and  _280
REMARK  117  A    between atoms: _279  and  _282
REMARK  118  A    between atoms: _282  and  _283
REMARK  119  A    between atoms: _286  and  _288
REMARK  120  A    between atoms: _288  and  _289
REMARK  121  A    between atoms: _288  and  _291
REMARK  122  A    between atoms: _294  and  _296
REMARK  123  A    between atoms: _296  and  _297
REMARK  124  A    between atoms: _296  and  _299
REMARK  125  A    between atoms: _299  and  _300
REMARK  126  A    between atoms: _300  and  _301
REMARK  127  A    between atoms: _301  and  _302
REMARK  128  A    between atoms: _302  and  _303
REMARK  129  A    between atoms: _307  and  _309
REMARK  130  A    between atoms: _309  and  _310
REMARK  131  A    between atoms: _309  and  _312
REMARK  132  A    between atoms: _312  and  _313
REMARK  133  A    between atoms: _316  and  _318
REMARK  134  A    between atoms: _318  and  _319
REMARK  135  A    between atoms: _318  and  _321
REMARK  136  A    between atoms: _321  and  _322
REMARK  137  A    between atoms: _325  and  _327
REMARK  138  A    between atoms: _327  and  _328
REMARK  139  A    between atoms: _327  and  _330
REMARK  140  A    between atoms: _330  and  _331
REMARK  141  A    between atoms: _334  and  _336
REMARK  142  A    between atoms: _336  and  _337
REMARK  143  A    between atoms: _336  and  _339
REMARK  144  A    between atoms: _339  and  _340
REMARK  145  A    between atoms: _340  and  _341
REMARK  146  A    between atoms: _343  and  _345
REMARK  147  A    between atoms: _345  and  _346
REMARK  148  A    between atoms: _345  and  _348
REMARK  149  A    between atoms: _348  and  _349
REMARK  150  A    between atoms: _349  and  _350
REMARK  151  A    between atoms: _353  and  _355
REMARK  152  A    between atoms: _355  and  _356
REMARK  153  A    between atoms: _355  and  _358
REMARK  154  A    between atoms: _358  and  _359
REMARK  155  A    between atoms: _362  and  _364
REMARK  156  A    between atoms: _364  and  _365
REMARK  157  A    between atoms: _364  and  _367
REMARK  158  A    between atoms: _369  and  _371
REMARK  159  A    between atoms: _371  and  _372
REMARK  160  A    between atoms: _371  and  _374
REMARK  161  A    between atoms: _374  and  _375
REMARK  162  A    between atoms: _378  and  _380
REMARK  163  A    between atoms: _380  and  _381
REMARK  164  A    between atoms: _380  and  _383
REMARK  165  A    between atoms: _383  and  _384
REMARK  166  A    between atoms: _387  and  _389
REMARK  167  A    between atoms: _389  and  _390
REMARK  168  A    between atoms: _392  and  _394
REMARK  169  A    between atoms: _394  and  _395
REMARK  170  A    between atoms: _394  and  _397
REMARK  171  A    between atoms: _397  and  _398
REMARK  172  A    between atoms: _398  and  _399
REMARK  173  A    between atoms: _402  and  _404
REMARK  174  A    between atoms: _404  and  _405
REMARK  175  A    between atoms: _408  and  _410
REMARK  176  A    between atoms: _410  and  _411
REMARK  177  A    between atoms: _410  and  _413
REMARK  178  A    between atoms: _413  and  _414
REMARK  179  A    between atoms: _417  and  _419
REMARK  180  A    between atoms: _419  and  _420
REMARK  181  A    between atoms: _419  and  _422
REMARK  182  A    between atoms: _422  and  _423
REMARK  183  A    between atoms: _428  and  _429
REMARK  184  A    between atoms: _431  and  _433
REMARK  185  A    between atoms: _433  and  _434
REMARK  186  A    between atoms: _433  and  _436
REMARK  187  A    between atoms: _436  and  _437
REMARK  188  A    between atoms: _440  and  _442
REMARK  189  A    between atoms: _442  and  _443
REMARK  190  A    between atoms: _442  and  _445
REMARK  191  A    between atoms: _445  and  _446
REMARK  192  A    between atoms: _452  and  _454
REMARK  193  A    between atoms: _454  and  _455
REMARK  194  A    between atoms: _454  and  _457
REMARK  195  A    between atoms: _460  and  _462
REMARK  196  A    between atoms: _462  and  _463
REMARK  197  A    between atoms: _462  and  _465
REMARK  198  A    between atoms: _465  and  _466
REMARK  199  A    between atoms: _471  and  _473
REMARK  200  A    between atoms: _473  and  _474
REMARK  201  A    between atoms: _473  and  _476
REMARK  202  A    between atoms: _476  and  _477
REMARK  203  A    between atoms: _477  and  _478
REMARK  204  A    between atoms: _478  and  _479
REMARK  205  A    between atoms: _488  and  _490
REMARK  206  A    between atoms: _490  and  _491
REMARK  207  A    between atoms: _490  and  _493
REMARK  208  A    between atoms: _493  and  _494
REMARK  209  A    between atoms: _497  and  _499
REMARK  210  A    between atoms: _499  and  _500
REMARK  211  A    between atoms: _499  and  _502
REMARK  212  A    between atoms: _502  and  _503
REMARK  213  A    between atoms: _506  and  _508
REMARK  214  A    between atoms: _508  and  _509
REMARK  215  A    between atoms: _508  and  _511
REMARK  216  A    between atoms: _511  and  _512
REMARK  217  A    between atoms: _517  and  _519
REMARK  218  A    between atoms: _519  and  _520
REMARK  219  A    between atoms: _519  and  _522
REMARK  220  A    between atoms: _525  and  _527
REMARK  221  A    between atoms: _527  and  _528
REMARK  222  A    between atoms: _527  and  _530
REMARK  223  A    between atoms: _530  and  _531
REMARK  224  A    between atoms: _534  and  _536
REMARK  225  A    between atoms: _536  and  _537
REMARK  226  A    between atoms: _536  and  _539
REMARK  227  A    between atoms: _542  and  _544
REMARK  228  A    between atoms: _544  and  _545
REMARK  229  A    between atoms: _544  and  _547
REMARK  230  A    between atoms: _547  and  _548
REMARK  231  A    between atoms: _550  and  _552
REMARK  232  A    between atoms: _552  and  _553
REMARK  233  A    between atoms: _552  and  _555
REMARK  234  A    between atoms: _555  and  _556
REMARK  235  A    between atoms: _556  and  _557
REMARK  236  A    between atoms: _557  and  _558
REMARK  237  A    between atoms: _558  and  _559
REMARK  238  A    between atoms: _563  and  _565
REMARK  239  A    between atoms: _565  and  _566
REMARK  240  A    between atoms: _565  and  _568
REMARK  241  A    between atoms: _568  and  _569
REMARK  242  A    between atoms: _572  and  _574
REMARK  243  A    between atoms: _574  and  _575
REMARK  244  A    between atoms: _577  and  _579
REMARK  245  A    between atoms: _579  and  _580
REMARK  246  A    between atoms: _579  and  _582
REMARK  247  A    between atoms: _582  and  _583
REMARK  248  A    between atoms: _586  and  _588
REMARK  249  A    between atoms: _588  and  _589
REMARK  250  A    between atoms: _588  and  _591
REMARK  251  A    between atoms: _591  and  _592
REMARK  252  A    between atoms: _598  and  _600
REMARK  253  A    between atoms: _600  and  _601
REMARK  254  A    between atoms: _603  and  _605
REMARK  255  A    between atoms: _605  and  _606
REMARK  256  A    between atoms: _605  and  _608
REMARK  257  A    between atoms: _608  and  _609
REMARK  258  A    between atoms: _612  and  _614
REMARK  259  A    between atoms: _614  and  _615
REMARK  260  A    between atoms: _614  and  _617
REMARK  261  A    between atoms: _617  and  _618
REMARK  262  A    between atoms: _620  and  _622
REMARK  263  A    between atoms: _622  and  _623
REMARK  264  A    between atoms: _622  and  _625
REMARK  265  A    between atoms: _625  and  _626
REMARK  266  A    between atoms: _626  and  _627
REMARK  267  A    between atoms: _627  and  _628
REMARK  268  A    between atoms: _637  and  _639
REMARK  269  A    between atoms: _639  and  _640
REMARK  270  A    between atoms: _639  and  _642
REMARK  271  A    between atoms: _642  and  _643
REMARK  272  A    between atoms: _648  and  _649
REMARK  273  A    between atoms: _651  and  _653
REMARK  274  A    between atoms: _653  and  _654
REMARK  275  A    between atoms: _653  and  _656
REMARK  276  A    between atoms: _656  and  _657
REMARK  277  A    between atoms: _657  and  _658
REMARK  278  A    between atoms: _660  and  _662
REMARK  279  A    between atoms: _662  and  _663
REMARK  280  A    between atoms: _662  and  _665
REMARK  281  A    between atoms: _665  and  _666
REMARK                            x       y       z     vdW  Elec       q    Type
REMARK                         _______ _______ _______ _____ _____    ______ ____
ROOT
ATOM      1  O   HOH     1     -30.046 -36.676  14.153  0.00  0.00    +0.000 OA
ENDROOT
TORSDOF 0
REMARK  Name = ../refined-set-2016/4k9y/4k9y_pocket.pdb
REMARK  281 active torsions:
REMARK  status: ('A' for Active; 'I' for Inactive)
REMARK    1  A    between atoms: _1  and  _3
REMARK    2  A    between atoms: _3  and  _4
REMARK    3  A    between atoms: _3  and  _6
REMARK    4  A    between atoms: _6  and  _7
REMARK    5  A    between atoms: _7  and  _8
REMARK    6  A    between atoms: _8  and  _9
REMARK    7  A    between atoms: _18  and  _20
REMARK    8  A    between atoms: _20  and  _21
REMARK    9  A    between atoms: _20  and  _23
REMARK   10  A    between atoms: _23  and  _24
REMARK   11  A    between atoms: _27  and  _29
REMARK   12  A    between atoms: _29  and  _30
REMARK   13  A    between atoms: _32  and  _34
REMARK   14  A    between atoms: _34  and  _35
REMARK   15  A    between atoms: _34  and  _37
REMARK   16  A    between atoms: _37  and  _38
REMARK   17  A    between atoms: _38  and  _39
REMARK   18  A    between atoms: _42  and  _44
REMARK   19  A    between atoms: _44  and  _45
REMARK   20  A    between atoms: _44  and  _47
REMARK   21  A    between atoms: _47  and  _48
REMARK   22  A    between atoms: _54  and  _56
REMARK   23  A    between atoms: _56  and  _57
REMARK   24  A    between atoms: _56  and  _59
REMARK   25  A    between atoms: _62  and  _64
REMARK   26  A    between atoms: _64  and  _65
REMARK   27  A    between atoms: _64  and  _67
REMARK   28  A    between atoms: _67  and  _68
REMARK   29  A    between atoms: _73  and  _75
REMARK   30  A    between atoms: _75  and  _76
REMARK   31  A    between atoms: _75  and  _78
REMARK   32  A    between atoms: _78  and  _79
REMARK   33  A    between atoms: _79  and  _80
REMARK   34  A    between atoms: _85  and  _87
REMARK   35  A    between atoms: _87  and  _88
REMARK   36  A    between atoms: _91  and  _93
REMARK   37  A    between atoms: _93  and  _94
REMARK   38  A    between atoms: _93  and  _96
REMARK   39  A    between atoms: _99  and  _101
REMARK   40  A    between atoms: _101  and  _102
REMARK   41  A    between atoms: _105  and  _107
REMARK   42  A    between atoms: _107  and  _108
REMARK   43  A    between atoms: _107  and  _110
REMARK   44  A    between atoms: _110  and  _111
REMARK   45  A    between atoms: _114  and  _116
REMARK   46  A    between atoms: _116  and  _117
REMARK   47  A    between atoms: _116  and  _119
REMARK   48  A    between atoms: _119  and  _120
REMARK   49  A    between atoms: _120  and  _121
REMARK   50  A    between atoms: _121  and  _122
REMARK   51  A    between atoms: _122  and  _123
REMARK   52  A    between atoms: _127  and  _129
REMARK   53  A    between atoms: _129  and  _130
REMARK   54  A    between atoms: _129  and  _132
REMARK   55  A    between atoms: _132  and  _133
REMARK   56  A    between atoms: _133  and  _134
REMARK   57  A    between atoms: _134  and  _135
REMARK   58  A    between atoms: _135  and  _136
REMARK   59  A    between atoms: _140  and  _142
REMARK   60  A    between atoms: _142  and  _143
REMARK   61  A    between atoms: _142  and  _145
REMARK   62  A    between atoms: _145  and  _146
REMARK   63  A    between atoms: _152  and  _154
REMARK   64  A    between atoms: _154  and  _155
REMARK   65  A    between atoms: _154  and  _157
REMARK   66  A    between atoms: _157  and  _158
REMARK   67  A    between atoms: _161  and  _163
REMARK   68  A    between atoms: _163  and  _164
REMARK   69  A    between atoms: _163  and  _166
REMARK   70  A    between atoms: _166  and  _167
REMARK   71  A    between atoms: _167  and  _168
REMARK   72  A    between atoms: _173  and  _175
REMARK   73  A    between atoms: _175  and  _176
REMARK   74  A    between atoms: _175  and  _178
REMARK   75  A    between atoms: _178  and  _179
REMARK   76  A    between atoms: _179  and  _180
REMARK   77  A    between atoms: _183  and  _185
REMARK   78  A    between atoms: _185  and  _186
REMARK   79  A    between atoms: _189  and  _191
REMARK   80  A    between atoms: _191  and  _192
REMARK   81  A    between atoms: _191  and  _194
REMARK   82  A    between atoms: _194  and  _195
REMARK   83  A    between atoms: _198  and  _200
REMARK   84  A    between atoms: _200  and  _201
REMARK   85  A    between atoms: _200  and  _203
REMARK   86  A    between atoms: _203  and  _204
REMARK   87  A    between atoms: _207  and  _209
REMARK   88  A    between atoms: _209  and  _210
REMARK   89  A    between atoms: _209  and  _212
REMARK   90  A    between atoms: _212  and  _213
REMARK   91  A    between atoms: _213  and  _214
REMARK   92  A    between atoms: _216  and  _218
REMARK   93  A    between atoms: _218  and  _219
REMARK   94  A    between atoms: _218  and  _221
REMARK   95  A    between atoms: _221  and  _222
REMARK   96  A    between atoms: _222  and  _223
REMARK   97  A    between atoms: _223  and  _224
REMARK   98  A    between atoms: _233  and  _235
REMARK   99  A    between atoms: _235  and  _236
REMARK  100  A    between atoms: _235  and  _238
REMARK  101  A    between atoms: _238  and  _239
REMARK  102  A    between atoms: _239  and  _240
REMARK  103  A    between atoms: _245  and  _247
REMARK  104  A    between atoms: _247  and  _248
REMARK  105  A    between atoms: _247  and  _250
REMARK  106  A    between atoms: _250  and  _251
REMARK  107  A    between atoms: _257  and  _259
REMARK  108  A    between atoms: _259  and  _260
REMARK  109  A    between atoms: _259  and  _262
REMARK  110  A    between atoms: _262  and  _263
REMARK  111  A    between atoms: _266  and  _268
REMARK  112  A    between atoms: _268  and  _269
REMARK  113  A    between atoms: _268  and  _271
REMARK  114  A    between atoms: _271  and  _272
REMARK  115  A    between atoms: _277  and  _279
REMARK  116  A    between atoms: _279  and  _280
REMARK  117  A    between atoms: _279  and  _282
REMARK  118  A    between atoms: _282  and  _283
REMARK  119  A    between atoms: _286  and  _288
REMARK  120  A    between atoms: _288  and  _289
REMARK  121  A    between atoms: _288  and  _291
REMARK  122  A    between atoms: _294  and  _296
REMARK  123  A    between atoms: _296  and  _297
REMARK  124  A    between atoms: _296  and  _299
REMARK  125  A    between atoms: _299  and  _300
REMARK  126  A    between atoms: _300  and  _301
REMARK  127  A    between atoms: _301  and  _302
REMARK  128  A    between atoms: _302  and  _303
REMARK  129  A    between atoms: _307  and  _309
REMARK  130  A    between atoms: _309  and  _310
REMARK  131  A    between atoms: _309  and  _312
REMARK  132  A    between atoms: _312  and  _313
REMARK  133  A    between atoms: _316  and  _318
REMARK  134  A    between atoms: _318  and  _319
REMARK  135  A    between atoms: _318  and  _321
REMARK  136  A    between atoms: _321  and  _322
REMARK  137  A    between atoms: _325  and  _327
REMARK  138  A    between atoms: _327  and  _328
REMARK  139  A    between atoms: _327  and  _330
REMARK  140  A    between atoms: _330  and  _331
REMARK  141  A    between atoms: _334  and  _336
REMARK  142  A    between atoms: _336  and  _337
REMARK  143  A    between atoms: _336  and  _339
REMARK  144  A    between atoms: _339  and  _340
REMARK  145  A    between atoms: _340  and  _341
REMARK  146  A    between atoms: _343  and  _345
REMARK  147  A    between atoms: _345  and  _346
REMARK  148  A    between atoms: _345  and  _348
REMARK  149  A    between atoms: _348  and  _349
REMARK  150  A    between atoms: _349  and  _350
REMARK  151  A    between atoms: _353  and  _355
REMARK  152  A    between atoms: _355  and  _356
REMARK  153  A    between atoms: _355  and  _358
REMARK  154  A    between atoms: _358  and  _359
REMARK  155  A    between atoms: _362  and  _364
REMARK  156  A    between atoms: _364  and  _365
REMARK  157  A    between atoms: _364  and  _367
REMARK  158  A    between atoms: _369  and  _371
REMARK  159  A    between atoms: _371  and  _372
REMARK  160  A    between atoms: _371  and  _374
REMARK  161  A    between atoms: _374  and  _375
REMARK  162  A    between atoms: _378  and  _380
REMARK  163  A    between atoms: _380  and  _381
REMARK  164  A    between atoms: _380  and  _383
REMARK  165  A    between atoms: _383  and  _384
REMARK  166  A    between atoms: _387  and  _389
REMARK  167  A    between atoms: _389  and  _390
REMARK  168  A    between atoms: _392  and  _394
REMARK  169  A    between atoms: _394  and  _395
REMARK  170  A    between atoms: _394  and  _397
REMARK  171  A    between atoms: _397  and  _398
REMARK  172  A    between atoms: _398  and  _399
REMARK  173  A    between atoms: _402  and  _404
REMARK  174  A    between atoms: _404  and  _405
REMARK  175  A    between atoms: _408  and  _410
REMARK  176  A    between atoms: _410  and  _411
REMARK  177  A    between atoms: _410  and  _413
REMARK  178  A    between atoms: _413  and  _414
REMARK  179  A    between atoms: _417  and  _419
REMARK  180  A    between atoms: _419  and  _420
REMARK  181  A    between atoms: _419  and  _422
REMARK  182  A    between atoms: _422  and  _423
REMARK  183  A    between atoms: _428  and  _429
REMARK  184  A    between atoms: _431  and  _433
REMARK  185  A    between atoms: _433  and  _434
REMARK  186  A    between atoms: _433  and  _436
REMARK  187  A    between atoms: _436  and  _437
REMARK  188  A    between atoms: _440  and  _442
REMARK  189  A    between atoms: _442  and  _443
REMARK  190  A    between atoms: _442  and  _445
REMARK  191  A    between atoms: _445  and  _446
REMARK  192  A    between atoms: _452  and  _454
REMARK  193  A    between atoms: _454  and  _455
REMARK  194  A    between atoms: _454  and  _457
REMARK  195  A    between atoms: _460  and  _462
REMARK  196  A    between atoms: _462  and  _463
REMARK  197  A    between atoms: _462  and  _465
REMARK  198  A    between atoms: _465  and  _466
REMARK  199  A    between atoms: _471  and  _473
REMARK  200  A    between atoms: _473  and  _474
REMARK  201  A    between atoms: _473  and  _476
REMARK  202  A    between atoms: _476  and  _477
REMARK  203  A    between atoms: _477  and  _478
REMARK  204  A    between atoms: _478  and  _479
REMARK  205  A    between atoms: _488  and  _490
REMARK  206  A    between atoms: _490  and  _491
REMARK  207  A    between atoms: _490  and  _493
REMARK  208  A    between atoms: _493  and  _494
REMARK  209  A    between atoms: _497  and  _499
REMARK  210  A    between atoms: _499  and  _500
REMARK  211  A    between atoms: _499  and  _502
REMARK  212  A    between atoms: _502  and  _503
REMARK  213  A    between atoms: _506  and  _508
REMARK  214  A    between atoms: _508  and  _509
REMARK  215  A    between atoms: _508  and  _511
REMARK  216  A    between atoms: _511  and  _512
REMARK  217  A    between atoms: _517  and  _519
REMARK  218  A    between atoms: _519  and  _520
REMARK  219  A    between atoms: _519  and  _522
REMARK  220  A    between atoms: _525  and  _527
REMARK  221  A    between atoms: _527  and  _528
REMARK  222  A    between atoms: _527  and  _530
REMARK  223  A    between atoms: _530  and  _531
REMARK  224  A    between atoms: _534  and  _536
REMARK  225  A    between atoms: _536  and  _537
REMARK  226  A    between atoms: _536  and  _539
REMARK  227  A    between atoms: _542  and  _544
REMARK  228  A    between atoms: _544  and  _545
REMARK  229  A    between atoms: _544  and  _547
REMARK  230  A    between atoms: _547  and  _548
REMARK  231  A    between atoms: _550  and  _552
REMARK  232  A    between atoms: _552  and  _553
REMARK  233  A    between atoms: _552  and  _555
REMARK  234  A    between atoms: _555  and  _556
REMARK  235  A    between atoms: _556  and  _557
REMARK  236  A    between atoms: _557  and  _558
REMARK  237  A    between atoms: _558  and  _559
REMARK  238  A    between atoms: _563  and  _565
REMARK  239  A    between atoms: _565  and  _566
REMARK  240  A    between atoms: _565  and  _568
REMARK  241  A    between atoms: _568  and  _569
REMARK  242  A    between atoms: _572  and  _574
REMARK  243  A    between atoms: _574  and  _575
REMARK  244  A    between atoms: _577  and  _579
REMARK  245  A    between atoms: _579  and  _580
REMARK  246  A    between atoms: _579  and  _582
REMARK  247  A    between atoms: _582  and  _583
REMARK  248  A    between atoms: _586  and  _588
REMARK  249  A    between atoms: _588  and  _589
REMARK  250  A    between atoms: _588  and  _591
REMARK  251  A    between atoms: _591  and  _592
REMARK  252  A    between atoms: _598  and  _600
REMARK  253  A    between atoms: _600  and  _601
REMARK  254  A    between atoms: _603  and  _605
REMARK  255  A    between atoms: _605  and  _606
REMARK  256  A    between atoms: _605  and  _608
REMARK  257  A    between atoms: _608  and  _609
REMARK  258  A    between atoms: _612  and  _614
REMARK  259  A    between atoms: _614  and  _615
REMARK  260  A    between atoms: _614  and  _617
REMARK  261  A    between atoms: _617  and  _618
REMARK  262  A    between atoms: _620  and  _622
REMARK  263  A    between atoms: _622  and  _623
REMARK  264  A    between atoms: _622  and  _625
REMARK  265  A    between atoms: _625  and  _626
REMARK  266  A    between atoms: _626  and  _627
REMARK  267  A    between atoms: _627  and  _628
REMARK  268  A    between atoms: _637  and  _639
REMARK  269  A    between atoms: _639  and  _640
REMARK  270  A    between atoms: _639  and  _642
REMARK  271  A    between atoms: _642  and  _643
REMARK  272  A    between atoms: _648  and  _649
REMARK  273  A    between atoms: _651  and  _653
REMARK  274  A    between atoms: _653  and  _654
REMARK  275  A    between atoms: _653  and  _656
REMARK  276  A    between atoms: _656  and  _657
REMARK  277  A    between atoms: _657  and  _658
REMARK  278  A    between atoms: _660  and  _662
REMARK  279  A    between atoms: _662  and  _663
REMARK  280  A    between atoms: _662  and  _665
REMARK  281  A    between atoms: _665  and  _666
REMARK                            x       y       z     vdW  Elec       q    Type
REMARK                         _______ _______ _______ _____ _____    ______ ____
ROOT
ATOM      1  O   HOH     1     -27.280 -41.590   5.301  0.00  0.00    +0.000 OA
ENDROOT
TORSDOF 0
REMARK  Name = ../refined-set-2016/4k9y/4k9y_pocket.pdb
REMARK  281 active torsions:
REMARK  status: ('A' for Active; 'I' for Inactive)
REMARK    1  A    between atoms: _1  and  _3
REMARK    2  A    between atoms: _3  and  _4
REMARK    3  A    between atoms: _3  and  _6
REMARK    4  A    between atoms: _6  and  _7
REMARK    5  A    between atoms: _7  and  _8
REMARK    6  A    between atoms: _8  and  _9
REMARK    7  A    between atoms: _18  and  _20
REMARK    8  A    between atoms: _20  and  _21
REMARK    9  A    between atoms: _20  and  _23
REMARK   10  A    between atoms: _23  and  _24
REMARK   11  A    between atoms: _27  and  _29
REMARK   12  A    between atoms: _29  and  _30
REMARK   13  A    between atoms: _32  and  _34
REMARK   14  A    between atoms: _34  and  _35
REMARK   15  A    between atoms: _34  and  _37
REMARK   16  A    between atoms: _37  and  _38
REMARK   17  A    between atoms: _38  and  _39
REMARK   18  A    between atoms: _42  and  _44
REMARK   19  A    between atoms: _44  and  _45
REMARK   20  A    between atoms: _44  and  _47
REMARK   21  A    between atoms: _47  and  _48
REMARK   22  A    between atoms: _54  and  _56
REMARK   23  A    between atoms: _56  and  _57
REMARK   24  A    between atoms: _56  and  _59
REMARK   25  A    between atoms: _62  and  _64
REMARK   26  A    between atoms: _64  and  _65
REMARK   27  A    between atoms: _64  and  _67
REMARK   28  A    between atoms: _67  and  _68
REMARK   29  A    between atoms: _73  and  _75
REMARK   30  A    between atoms: _75  and  _76
REMARK   31  A    between atoms: _75  and  _78
REMARK   32  A    between atoms: _78  and  _79
REMARK   33  A    between atoms: _79  and  _80
REMARK   34  A    between atoms: _85  and  _87
REMARK   35  A    between atoms: _87  and  _88
REMARK   36  A    between atoms: _91  and  _93
REMARK   37  A    between atoms: _93  and  _94
REMARK   38  A    between atoms: _93  and  _96
REMARK   39  A    between atoms: _99  and  _101
REMARK   40  A    between atoms: _101  and  _102
REMARK   41  A    between atoms: _105  and  _107
REMARK   42  A    between atoms: _107  and  _108
REMARK   43  A    between atoms: _107  and  _110
REMARK   44  A    between atoms: _110  and  _111
REMARK   45  A    between atoms: _114  and  _116
REMARK   46  A    between atoms: _116  and  _117
REMARK   47  A    between atoms: _116  and  _119
REMARK   48  A    between atoms: _119  and  _120
REMARK   49  A    between atoms: _120  and  _121
REMARK   50  A    between atoms: _121  and  _122
REMARK   51  A    between atoms: _122  and  _123
REMARK   52  A    between atoms: _127  and  _129
REMARK   53  A    between atoms: _129  and  _130
REMARK   54  A    between atoms: _129  and  _132
REMARK   55  A    between atoms: _132  and  _133
REMARK   56  A    between atoms: _133  and  _134
REMARK   57  A    between atoms: _134  and  _135
REMARK   58  A    between atoms: _135  and  _136
REMARK   59  A    between atoms: _140  and  _142
REMARK   60  A    between atoms: _142  and  _143
REMARK   61  A    between atoms: _142  and  _145
REMARK   62  A    between atoms: _145  and  _146
REMARK   63  A    between atoms: _152  and  _154
REMARK   64  A    between atoms: _154  and  _155
REMARK   65  A    between atoms: _154  and  _157
REMARK   66  A    between atoms: _157  and  _158
REMARK   67  A    between atoms: _161  and  _163
REMARK   68  A    between atoms: _163  and  _164
REMARK   69  A    between atoms: _163  and  _166
REMARK   70  A    between atoms: _166  and  _167
REMARK   71  A    between atoms: _167  and  _168
REMARK   72  A    between atoms: _173  and  _175
REMARK   73  A    between atoms: _175  and  _176
REMARK   74  A    between atoms: _175  and  _178
REMARK   75  A    between atoms: _178  and  _179
REMARK   76  A    between atoms: _179  and  _180
REMARK   77  A    between atoms: _183  and  _185
REMARK   78  A    between atoms: _185  and  _186
REMARK   79  A    between atoms: _189  and  _191
REMARK   80  A    between atoms: _191  and  _192
REMARK   81  A    between atoms: _191  and  _194
REMARK   82  A    between atoms: _194  and  _195
REMARK   83  A    between atoms: _198  and  _200
REMARK   84  A    between atoms: _200  and  _201
REMARK   85  A    between atoms: _200  and  _203
REMARK   86  A    between atoms: _203  and  _204
REMARK   87  A    between atoms: _207  and  _209
REMARK   88  A    between atoms: _209  and  _210
REMARK   89  A    between atoms: _209  and  _212
REMARK   90  A    between atoms: _212  and  _213
REMARK   91  A    between atoms: _213  and  _214
REMARK   92  A    between atoms: _216  and  _218
REMARK   93  A    between atoms: _218  and  _219
REMARK   94  A    between atoms: _218  and  _221
REMARK   95  A    between atoms: _221  and  _222
REMARK   96  A    between atoms: _222  and  _223
REMARK   97  A    between atoms: _223  and  _224
REMARK   98  A    between atoms: _233  and  _235
REMARK   99  A    between atoms: _235  and  _236
REMARK  100  A    between atoms: _235  and  _238
REMARK  101  A    between atoms: _238  and  _239
REMARK  102  A    between atoms: _239  and  _240
REMARK  103  A    between atoms: _245  and  _247
REMARK  104  A    between atoms: _247  and  _248
REMARK  105  A    between atoms: _247  and  _250
REMARK  106  A    between atoms: _250  and  _251
REMARK  107  A    between atoms: _257  and  _259
REMARK  108  A    between atoms: _259  and  _260
REMARK  109  A    between atoms: _259  and  _262
REMARK  110  A    between atoms: _262  and  _263
REMARK  111  A    between atoms: _266  and  _268
REMARK  112  A    between atoms: _268  and  _269
REMARK  113  A    between atoms: _268  and  _271
REMARK  114  A    between atoms: _271  and  _272
REMARK  115  A    between atoms: _277  and  _279
REMARK  116  A    between atoms: _279  and  _280
REMARK  117  A    between atoms: _279  and  _282
REMARK  118  A    between atoms: _282  and  _283
REMARK  119  A    between atoms: _286  and  _288
REMARK  120  A    between atoms: _288  and  _289
REMARK  121  A    between atoms: _288  and  _291
REMARK  122  A    between atoms: _294  and  _296
REMARK  123  A    between atoms: _296  and  _297
REMARK  124  A    between atoms: _296  and  _299
REMARK  125  A    between atoms: _299  and  _300
REMARK  126  A    between atoms: _300  and  _301
REMARK  127  A    between atoms: _301  and  _302
REMARK  128  A    between atoms: _302  and  _303
REMARK  129  A    between atoms: _307  and  _309
REMARK  130  A    between atoms: _309  and  _310
REMARK  131  A    between atoms: _309  and  _312
REMARK  132  A    between atoms: _312  and  _313
REMARK  133  A    between atoms: _316  and  _318
REMARK  134  A    between atoms: _318  and  _319
REMARK  135  A    between atoms: _318  and  _321
REMARK  136  A    between atoms: _321  and  _322
REMARK  137  A    between atoms: _325  and  _327
REMARK  138  A    between atoms: _327  and  _328
REMARK  139  A    between atoms: _327  and  _330
REMARK  140  A    between atoms: _330  and  _331
REMARK  141  A    between atoms: _334  and  _336
REMARK  142  A    between atoms: _336  and  _337
REMARK  143  A    between atoms: _336  and  _339
REMARK  144  A    between atoms: _339  and  _340
REMARK  145  A    between atoms: _340  and  _341
REMARK  146  A    between atoms: _343  and  _345
REMARK  147  A    between atoms: _345  and  _346
REMARK  148  A    between atoms: _345  and  _348
REMARK  149  A    between atoms: _348  and  _349
REMARK  150  A    between atoms: _349  and  _350
REMARK  151  A    between atoms: _353  and  _355
REMARK  152  A    between atoms: _355  and  _356
REMARK  153  A    between atoms: _355  and  _358
REMARK  154  A    between atoms: _358  and  _359
REMARK  155  A    between atoms: _362  and  _364
REMARK  156  A    between atoms: _364  and  _365
REMARK  157  A    between atoms: _364  and  _367
REMARK  158  A    between atoms: _369  and  _371
REMARK  159  A    between atoms: _371  and  _372
REMARK  160  A    between atoms: _371  and  _374
REMARK  161  A    between atoms: _374  and  _375
REMARK  162  A    between atoms: _378  and  _380
REMARK  163  A    between atoms: _380  and  _381
REMARK  164  A    between atoms: _380  and  _383
REMARK  165  A    between atoms: _383  and  _384
REMARK  166  A    between atoms: _387  and  _389
REMARK  167  A    between atoms: _389  and  _390
REMARK  168  A    between atoms: _392  and  _394
REMARK  169  A    between atoms: _394  and  _395
REMARK  170  A    between atoms: _394  and  _397
REMARK  171  A    between atoms: _397  and  _398
REMARK  172  A    between atoms: _398  and  _399
REMARK  173  A    between atoms: _402  and  _404
REMARK  174  A    between atoms: _404  and  _405
REMARK  175  A    between atoms: _408  and  _410
REMARK  176  A    between atoms: _410  and  _411
REMARK  177  A    between atoms: _410  and  _413
REMARK  178  A    between atoms: _413  and  _414
REMARK  179  A    between atoms: _417  and  _419
REMARK  180  A    between atoms: _419  and  _420
REMARK  181  A    between atoms: _419  and  _422
REMARK  182  A    between atoms: _422  and  _423
REMARK  183  A    between atoms: _428  and  _429
REMARK  184  A    between atoms: _431  and  _433
REMARK  185  A    between atoms: _433  and  _434
REMARK  186  A    between atoms: _433  and  _436
REMARK  187  A    between atoms: _436  and  _437
REMARK  188  A    between atoms: _440  and  _442
REMARK  189  A    between atoms: _442  and  _443
REMARK  190  A    between atoms: _442  and  _445
REMARK  191  A    between atoms: _445  and  _446
REMARK  192  A    between atoms: _452  and  _454
REMARK  193  A    between atoms: _454  and  _455
REMARK  194  A    between atoms: _454  and  _457
REMARK  195  A    between atoms: _460  and  _462
REMARK  196  A    between atoms: _462  and  _463
REMARK  197  A    between atoms: _462  and  _465
REMARK  198  A    between atoms: _465  and  _466
REMARK  199  A    between atoms: _471  and  _473
REMARK  200  A    between atoms: _473  and  _474
REMARK  201  A    between atoms: _473  and  _476
REMARK  202  A    between atoms: _476  and  _477
REMARK  203  A    between atoms: _477  and  _478
REMARK  204  A    between atoms: _478  and  _479
REMARK  205  A    between atoms: _488  and  _490
REMARK  206  A    between atoms: _490  and  _491
REMARK  207  A    between atoms: _490  and  _493
REMARK  208  A    between atoms: _493  and  _494
REMARK  209  A    between atoms: _497  and  _499
REMARK  210  A    between atoms: _499  and  _500
REMARK  211  A    between atoms: _499  and  _502
REMARK  212  A    between atoms: _502  and  _503
REMARK  213  A    between atoms: _506  and  _508
REMARK  214  A    between atoms: _508  and  _509
REMARK  215  A    between atoms: _508  and  _511
REMARK  216  A    between atoms: _511  and  _512
REMARK  217  A    between atoms: _517  and  _519
REMARK  218  A    between atoms: _519  and  _520
REMARK  219  A    between atoms: _519  and  _522
REMARK  220  A    between atoms: _525  and  _527
REMARK  221  A    between atoms: _527  and  _528
REMARK  222  A    between atoms: _527  and  _530
REMARK  223  A    between atoms: _530  and  _531
REMARK  224  A    between atoms: _534  and  _536
REMARK  225  A    between atoms: _536  and  _537
REMARK  226  A    between atoms: _536  and  _539
REMARK  227  A    between atoms: _542  and  _544
REMARK  228  A    between atoms: _544  and  _545
REMARK  229  A    between atoms: _544  and  _547
REMARK  230  A    between atoms: _547  and  _548
REMARK  231  A    between atoms: _550  and  _552
REMARK  232  A    between atoms: _552  and  _553
REMARK  233  A    between atoms: _552  and  _555
REMARK  234  A    between atoms: _555  and  _556
REMARK  235  A    between atoms: _556  and  _557
REMARK  236  A    between atoms: _557  and  _558
REMARK  237  A    between atoms: _558  and  _559
REMARK  238  A    between atoms: _563  and  _565
REMARK  239  A    between atoms: _565  and  _566
REMARK  240  A    between atoms: _565  and  _568
REMARK  241  A    between atoms: _568  and  _569
REMARK  242  A    between atoms: _572  and  _574
REMARK  243  A    between atoms: _574  and  _575
REMARK  244  A    between atoms: _577  and  _579
REMARK  245  A    between atoms: _579  and  _580
REMARK  246  A    between atoms: _579  and  _582
REMARK  247  A    between atoms: _582  and  _583
REMARK  248  A    between atoms: _586  and  _588
REMARK  249  A    between atoms: _588  and  _589
REMARK  250  A    between atoms: _588  and  _591
REMARK  251  A    between atoms: _591  and  _592
REMARK  252  A    between atoms: _598  and  _600
REMARK  253  A    between atoms: _600  and  _601
REMARK  254  A    between atoms: _603  and  _605
REMARK  255  A    between atoms: _605  and  _606
REMARK  256  A    between atoms: _605  and  _608
REMARK  257  A    between atoms: _608  and  _609
REMARK  258  A    between atoms: _612  and  _614
REMARK  259  A    between atoms: _614  and  _615
REMARK  260  A    between atoms: _614  and  _617
REMARK  261  A    between atoms: _617  and  _618
REMARK  262  A    between atoms: _620  and  _622
REMARK  263  A    between atoms: _622  and  _623
REMARK  264  A    between atoms: _622  and  _625
REMARK  265  A    between atoms: _625  and  _626
REMARK  266  A    between atoms: _626  and  _627
REMARK  267  A    between atoms: _627  and  _628
REMARK  268  A    between atoms: _637  and  _639
REMARK  269  A    between atoms: _639  and  _640
REMARK  270  A    between atoms: _639  and  _642
REMARK  271  A    between atoms: _642  and  _643
REMARK  272  A    between atoms: _648  and  _649
REMARK  273  A    between atoms: _651  and  _653
REMARK  274  A    between atoms: _653  and  _654
REMARK  275  A    between atoms: _653  and  _656
REMARK  276  A    between atoms: _656  and  _657
REMARK  277  A    between atoms: _657  and  _658
REMARK  278  A    between atoms: _660  and  _662
REMARK  279  A    between atoms: _662  and  _663
REMARK  280  A    between atoms: _662  and  _665
REMARK  281  A    between atoms: _665  and  _666
REMARK                            x       y       z     vdW  Elec       q    Type
REMARK                         _______ _______ _______ _____ _____    ______ ____
ROOT
ATOM      1  O   HOH     1     -31.425 -40.702  13.795  0.00  0.00    +0.000 OA
ENDROOT
TORSDOF 0
REMARK  Name = ../refined-set-2016/4k9y/4k9y_pocket.pdb
REMARK  281 active torsions:
REMARK  status: ('A' for Active; 'I' for Inactive)
REMARK    1  A    between atoms: _1  and  _3
REMARK    2  A    between atoms: _3  and  _4
REMARK    3  A    between atoms: _3  and  _6
REMARK    4  A    between atoms: _6  and  _7
REMARK    5  A    between atoms: _7  and  _8
REMARK    6  A    between atoms: _8  and  _9
REMARK    7  A    between atoms: _18  and  _20
REMARK    8  A    between atoms: _20  and  _21
REMARK    9  A    between atoms: _20  and  _23
REMARK   10  A    between atoms: _23  and  _24
REMARK   11  A    between atoms: _27  and  _29
REMARK   12  A    between atoms: _29  and  _30
REMARK   13  A    between atoms: _32  and  _34
REMARK   14  A    between atoms: _34  and  _35
REMARK   15  A    between atoms: _34  and  _37
REMARK   16  A    between atoms: _37  and  _38
REMARK   17  A    between atoms: _38  and  _39
REMARK   18  A    between atoms: _42  and  _44
REMARK   19  A    between atoms: _44  and  _45
REMARK   20  A    between atoms: _44  and  _47
REMARK   21  A    between atoms: _47  and  _48
REMARK   22  A    between atoms: _54  and  _56
REMARK   23  A    between atoms: _56  and  _57
REMARK   24  A    between atoms: _56  and  _59
REMARK   25  A    between atoms: _62  and  _64
REMARK   26  A    between atoms: _64  and  _65
REMARK   27  A    between atoms: _64  and  _67
REMARK   28  A    between atoms: _67  and  _68
REMARK   29  A    between atoms: _73  and  _75
REMARK   30  A    between atoms: _75  and  _76
REMARK   31  A    between atoms: _75  and  _78
REMARK   32  A    between atoms: _78  and  _79
REMARK   33  A    between atoms: _79  and  _80
REMARK   34  A    between atoms: _85  and  _87
REMARK   35  A    between atoms: _87  and  _88
REMARK   36  A    between atoms: _91  and  _93
REMARK   37  A    between atoms: _93  and  _94
REMARK   38  A    between atoms: _93  and  _96
REMARK   39  A    between atoms: _99  and  _101
REMARK   40  A    between atoms: _101  and  _102
REMARK   41  A    between atoms: _105  and  _107
REMARK   42  A    between atoms: _107  and  _108
REMARK   43  A    between atoms: _107  and  _110
REMARK   44  A    between atoms: _110  and  _111
REMARK   45  A    between atoms: _114  and  _116
REMARK   46  A    between atoms: _116  and  _117
REMARK   47  A    between atoms: _116  and  _119
REMARK   48  A    between atoms: _119  and  _120
REMARK   49  A    between atoms: _120  and  _121
REMARK   50  A    between atoms: _121  and  _122
REMARK   51  A    between atoms: _122  and  _123
REMARK   52  A    between atoms: _127  and  _129
REMARK   53  A    between atoms: _129  and  _130
REMARK   54  A    between atoms: _129  and  _132
REMARK   55  A    between atoms: _132  and  _133
REMARK   56  A    between atoms: _133  and  _134
REMARK   57  A    between atoms: _134  and  _135
REMARK   58  A    between atoms: _135  and  _136
REMARK   59  A    between atoms: _140  and  _142
REMARK   60  A    between atoms: _142  and  _143
REMARK   61  A    between atoms: _142  and  _145
REMARK   62  A    between atoms: _145  and  _146
REMARK   63  A    between atoms: _152  and  _154
REMARK   64  A    between atoms: _154  and  _155
REMARK   65  A    between atoms: _154  and  _157
REMARK   66  A    between atoms: _157  and  _158
REMARK   67  A    between atoms: _161  and  _163
REMARK   68  A    between atoms: _163  and  _164
REMARK   69  A    between atoms: _163  and  _166
REMARK   70  A    between atoms: _166  and  _167
REMARK   71  A    between atoms: _167  and  _168
REMARK   72  A    between atoms: _173  and  _175
REMARK   73  A    between atoms: _175  and  _176
REMARK   74  A    between atoms: _175  and  _178
REMARK   75  A    between atoms: _178  and  _179
REMARK   76  A    between atoms: _179  and  _180
REMARK   77  A    between atoms: _183  and  _185
REMARK   78  A    between atoms: _185  and  _186
REMARK   79  A    between atoms: _189  and  _191
REMARK   80  A    between atoms: _191  and  _192
REMARK   81  A    between atoms: _191  and  _194
REMARK   82  A    between atoms: _194  and  _195
REMARK   83  A    between atoms: _198  and  _200
REMARK   84  A    between atoms: _200  and  _201
REMARK   85  A    between atoms: _200  and  _203
REMARK   86  A    between atoms: _203  and  _204
REMARK   87  A    between atoms: _207  and  _209
REMARK   88  A    between atoms: _209  and  _210
REMARK   89  A    between atoms: _209  and  _212
REMARK   90  A    between atoms: _212  and  _213
REMARK   91  A    between atoms: _213  and  _214
REMARK   92  A    between atoms: _216  and  _218
REMARK   93  A    between atoms: _218  and  _219
REMARK   94  A    between atoms: _218  and  _221
REMARK   95  A    between atoms: _221  and  _222
REMARK   96  A    between atoms: _222  and  _223
REMARK   97  A    between atoms: _223  and  _224
REMARK   98  A    between atoms: _233  and  _235
REMARK   99  A    between atoms: _235  and  _236
REMARK  100  A    between atoms: _235  and  _238
REMARK  101  A    between atoms: _238  and  _239
REMARK  102  A    between atoms: _239  and  _240
REMARK  103  A    between atoms: _245  and  _247
REMARK  104  A    between atoms: _247  and  _248
REMARK  105  A    between atoms: _247  and  _250
REMARK  106  A    between atoms: _250  and  _251
REMARK  107  A    between atoms: _257  and  _259
REMARK  108  A    between atoms: _259  and  _260
REMARK  109  A    between atoms: _259  and  _262
REMARK  110  A    between atoms: _262  and  _263
REMARK  111  A    between atoms: _266  and  _268
REMARK  112  A    between atoms: _268  and  _269
REMARK  113  A    between atoms: _268  and  _271
REMARK  114  A    between atoms: _271  and  _272
REMARK  115  A    between atoms: _277  and  _279
REMARK  116  A    between atoms: _279  and  _280
REMARK  117  A    between atoms: _279  and  _282
REMARK  118  A    between atoms: _282  and  _283
REMARK  119  A    between atoms: _286  and  _288
REMARK  120  A    between atoms: _288  and  _289
REMARK  121  A    between atoms: _288  and  _291
REMARK  122  A    between atoms: _294  and  _296
REMARK  123  A    between atoms: _296  and  _297
REMARK  124  A    between atoms: _296  and  _299
REMARK  125  A    between atoms: _299  and  _300
REMARK  126  A    between atoms: _300  and  _301
REMARK  127  A    between atoms: _301  and  _302
REMARK  128  A    between atoms: _302  and  _303
REMARK  129  A    between atoms: _307  and  _309
REMARK  130  A    between atoms: _309  and  _310
REMARK  131  A    between atoms: _309  and  _312
REMARK  132  A    between atoms: _312  and  _313
REMARK  133  A    between atoms: _316  and  _318
REMARK  134  A    between atoms: _318  and  _319
REMARK  135  A    between atoms: _318  and  _321
REMARK  136  A    between atoms: _321  and  _322
REMARK  137  A    between atoms: _325  and  _327
REMARK  138  A    between atoms: _327  and  _328
REMARK  139  A    between atoms: _327  and  _330
REMARK  140  A    between atoms: _330  and  _331
REMARK  141  A    between atoms: _334  and  _336
REMARK  142  A    between atoms: _336  and  _337
REMARK  143  A    between atoms: _336  and  _339
REMARK  144  A    between atoms: _339  and  _340
REMARK  145  A    between atoms: _340  and  _341
REMARK  146  A    between atoms: _343  and  _345
REMARK  147  A    between atoms: _345  and  _346
REMARK  148  A    between atoms: _345  and  _348
REMARK  149  A    between atoms: _348  and  _349
REMARK  150  A    between atoms: _349  and  _350
REMARK  151  A    between atoms: _353  and  _355
REMARK  152  A    between atoms: _355  and  _356
REMARK  153  A    between atoms: _355  and  _358
REMARK  154  A    between atoms: _358  and  _359
REMARK  155  A    between atoms: _362  and  _364
REMARK  156  A    between atoms: _364  and  _365
REMARK  157  A    between atoms: _364  and  _367
REMARK  158  A    between atoms: _369  and  _371
REMARK  159  A    between atoms: _371  and  _372
REMARK  160  A    between atoms: _371  and  _374
REMARK  161  A    between atoms: _374  and  _375
REMARK  162  A    between atoms: _378  and  _380
REMARK  163  A    between atoms: _380  and  _381
REMARK  164  A    between atoms: _380  and  _383
REMARK  165  A    between atoms: _383  and  _384
REMARK  166  A    between atoms: _387  and  _389
REMARK  167  A    between atoms: _389  and  _390
REMARK  168  A    between atoms: _392  and  _394
REMARK  169  A    between atoms: _394  and  _395
REMARK  170  A    between atoms: _394  and  _397
REMARK  171  A    between atoms: _397  and  _398
REMARK  172  A    between atoms: _398  and  _399
REMARK  173  A    between atoms: _402  and  _404
REMARK  174  A    between atoms: _404  and  _405
REMARK  175  A    between atoms: _408  and  _410
REMARK  176  A    between atoms: _410  and  _411
REMARK  177  A    between atoms: _410  and  _413
REMARK  178  A    between atoms: _413  and  _414
REMARK  179  A    between atoms: _417  and  _419
REMARK  180  A    between atoms: _419  and  _420
REMARK  181  A    between atoms: _419  and  _422
REMARK  182  A    between atoms: _422  and  _423
REMARK  183  A    between atoms: _428  and  _429
REMARK  184  A    between atoms: _431  and  _433
REMARK  185  A    between atoms: _433  and  _434
REMARK  186  A    between atoms: _433  and  _436
REMARK  187  A    between atoms: _436  and  _437
REMARK  188  A    between atoms: _440  and  _442
REMARK  189  A    between atoms: _442  and  _443
REMARK  190  A    between atoms: _442  and  _445
REMARK  191  A    between atoms: _445  and  _446
REMARK  192  A    between atoms: _452  and  _454
REMARK  193  A    between atoms: _454  and  _455
REMARK  194  A    between atoms: _454  and  _457
REMARK  195  A    between atoms: _460  and  _462
REMARK  196  A    between atoms: _462  and  _463
REMARK  197  A    between atoms: _462  and  _465
REMARK  198  A    between atoms: _465  and  _466
REMARK  199  A    between atoms: _471  and  _473
REMARK  200  A    between atoms: _473  and  _474
REMARK  201  A    between atoms: _473  and  _476
REMARK  202  A    between atoms: _476  and  _477
REMARK  203  A    between atoms: _477  and  _478
REMARK  204  A    between atoms: _478  and  _479
REMARK  205  A    between atoms: _488  and  _490
REMARK  206  A    between atoms: _490  and  _491
REMARK  207  A    between atoms: _490  and  _493
REMARK  208  A    between atoms: _493  and  _494
REMARK  209  A    between atoms: _497  and  _499
REMARK  210  A    between atoms: _499  and  _500
REMARK  211  A    between atoms: _499  and  _502
REMARK  212  A    between atoms: _502  and  _503
REMARK  213  A    between atoms: _506  and  _508
REMARK  214  A    between atoms: _508  and  _509
REMARK  215  A    between atoms: _508  and  _511
REMARK  216  A    between atoms: _511  and  _512
REMARK  217  A    between atoms: _517  and  _519
REMARK  218  A    between atoms: _519  and  _520
REMARK  219  A    between atoms: _519  and  _522
REMARK  220  A    between atoms: _525  and  _527
REMARK  221  A    between atoms: _527  and  _528
REMARK  222  A    between atoms: _527  and  _530
REMARK  223  A    between atoms: _530  and  _531
REMARK  224  A    between atoms: _534  and  _536
REMARK  225  A    between atoms: _536  and  _537
REMARK  226  A    between atoms: _536  and  _539
REMARK  227  A    between atoms: _542  and  _544
REMARK  228  A    between atoms: _544  and  _545
REMARK  229  A    between atoms: _544  and  _547
REMARK  230  A    between atoms: _547  and  _548
REMARK  231  A    between atoms: _550  and  _552
REMARK  232  A    between atoms: _552  and  _553
REMARK  233  A    between atoms: _552  and  _555
REMARK  234  A    between atoms: _555  and  _556
REMARK  235  A    between atoms: _556  and  _557
REMARK  236  A    between atoms: _557  and  _558
REMARK  237  A    between atoms: _558  and  _559
REMARK  238  A    between atoms: _563  and  _565
REMARK  239  A    between atoms: _565  and  _566
REMARK  240  A    between atoms: _565  and  _568
REMARK  241  A    between atoms: _568  and  _569
REMARK  242  A    between atoms: _572  and  _574
REMARK  243  A    between atoms: _574  and  _575
REMARK  244  A    between atoms: _577  and  _579
REMARK  245  A    between atoms: _579  and  _580
REMARK  246  A    between atoms: _579  and  _582
REMARK  247  A    between atoms: _582  and  _583
REMARK  248  A    between atoms: _586  and  _588
REMARK  249  A    between atoms: _588  and  _589
REMARK  250  A    between atoms: _588  and  _591
REMARK  251  A    between atoms: _591  and  _592
REMARK  252  A    between atoms: _598  and  _600
REMARK  253  A    between atoms: _600  and  _601
REMARK  254  A    between atoms: _603  and  _605
REMARK  255  A    between atoms: _605  and  _606
REMARK  256  A    between atoms: _605  and  _608
REMARK  257  A    between atoms: _608  and  _609
REMARK  258  A    between atoms: _612  and  _614
REMARK  259  A    between atoms: _614  and  _615
REMARK  260  A    between atoms: _614  and  _617
REMARK  261  A    between atoms: _617  and  _618
REMARK  262  A    between atoms: _620  and  _622
REMARK  263  A    between atoms: _622  and  _623
REMARK  264  A    between atoms: _622  and  _625
REMARK  265  A    between atoms: _625  and  _626
REMARK  266  A    between atoms: _626  and  _627
REMARK  267  A    between atoms: _627  and  _628
REMARK  268  A    between atoms: _637  and  _639
REMARK  269  A    between atoms: _639  and  _640
REMARK  270  A    between atoms: _639  and  _642
REMARK  271  A    between atoms: _642  and  _643
REMARK  272  A    between atoms: _648  and  _649
REMARK  273  A    between atoms: _651  and  _653
REMARK  274  A    between atoms: _653  and  _654
REMARK  275  A    between atoms: _653  and  _656
REMARK  276  A    between atoms: _656  and  _657
REMARK  277  A    between atoms: _657  and  _658
REMARK  278  A    between atoms: _660  and  _662
REMARK  279  A    between atoms: _662  and  _663
REMARK  280  A    between atoms: _662  and  _665
REMARK  281  A    between atoms: _665  and  _666
REMARK                            x       y       z     vdW  Elec       q    Type
REMARK                         _______ _______ _______ _____ _____    ______ ____
ROOT
ATOM      1  O   HOH     1     -33.212 -32.035  13.761  0.00  0.00    +0.000 OA
ENDROOT
TORSDOF 0
REMARK  Name = ../refined-set-2016/4k9y/4k9y_pocket.pdb
REMARK  281 active torsions:
REMARK  status: ('A' for Active; 'I' for Inactive)
REMARK    1  A    between atoms: _1  and  _3
REMARK    2  A    between atoms: _3  and  _4
REMARK    3  A    between atoms: _3  and  _6
REMARK    4  A    between atoms: _6  and  _7
REMARK    5  A    between atoms: _7  and  _8
REMARK    6  A    between atoms: _8  and  _9
REMARK    7  A    between atoms: _18  and  _20
REMARK    8  A    between atoms: _20  and  _21
REMARK    9  A    between atoms: _20  and  _23
REMARK   10  A    between atoms: _23  and  _24
REMARK   11  A    between atoms: _27  and  _29
REMARK   12  A    between atoms: _29  and  _30
REMARK   13  A    between atoms: _32  and  _34
REMARK   14  A    between atoms: _34  and  _35
REMARK   15  A    between atoms: _34  and  _37
REMARK   16  A    between atoms: _37  and  _38
REMARK   17  A    between atoms: _38  and  _39
REMARK   18  A    between atoms: _42  and  _44
REMARK   19  A    between atoms: _44  and  _45
REMARK   20  A    between atoms: _44  and  _47
REMARK   21  A    between atoms: _47  and  _48
REMARK   22  A    between atoms: _54  and  _56
REMARK   23  A    between atoms: _56  and  _57
REMARK   24  A    between atoms: _56  and  _59
REMARK   25  A    between atoms: _62  and  _64
REMARK   26  A    between atoms: _64  and  _65
REMARK   27  A    between atoms: _64  and  _67
REMARK   28  A    between atoms: _67  and  _68
REMARK   29  A    between atoms: _73  and  _75
REMARK   30  A    between atoms: _75  and  _76
REMARK   31  A    between atoms: _75  and  _78
REMARK   32  A    between atoms: _78  and  _79
REMARK   33  A    between atoms: _79  and  _80
REMARK   34  A    between atoms: _85  and  _87
REMARK   35  A    between atoms: _87  and  _88
REMARK   36  A    between atoms: _91  and  _93
REMARK   37  A    between atoms: _93  and  _94
REMARK   38  A    between atoms: _93  and  _96
REMARK   39  A    between atoms: _99  and  _101
REMARK   40  A    between atoms: _101  and  _102
REMARK   41  A    between atoms: _105  and  _107
REMARK   42  A    between atoms: _107  and  _108
REMARK   43  A    between atoms: _107  and  _110
REMARK   44  A    between atoms: _110  and  _111
REMARK   45  A    between atoms: _114  and  _116
REMARK   46  A    between atoms: _116  and  _117
REMARK   47  A    between atoms: _116  and  _119
REMARK   48  A    between atoms: _119  and  _120
REMARK   49  A    between atoms: _120  and  _121
REMARK   50  A    between atoms: _121  and  _122
REMARK   51  A    between atoms: _122  and  _123
REMARK   52  A    between atoms: _127  and  _129
REMARK   53  A    between atoms: _129  and  _130
REMARK   54  A    between atoms: _129  and  _132
REMARK   55  A    between atoms: _132  and  _133
REMARK   56  A    between atoms: _133  and  _134
REMARK   57  A    between atoms: _134  and  _135
REMARK   58  A    between atoms: _135  and  _136
REMARK   59  A    between atoms: _140  and  _142
REMARK   60  A    between atoms: _142  and  _143
REMARK   61  A    between atoms: _142  and  _145
REMARK   62  A    between atoms: _145  and  _146
REMARK   63  A    between atoms: _152  and  _154
REMARK   64  A    between atoms: _154  and  _155
REMARK   65  A    between atoms: _154  and  _157
REMARK   66  A    between atoms: _157  and  _158
REMARK   67  A    between atoms: _161  and  _163
REMARK   68  A    between atoms: _163  and  _164
REMARK   69  A    between atoms: _163  and  _166
REMARK   70  A    between atoms: _166  and  _167
REMARK   71  A    between atoms: _167  and  _168
REMARK   72  A    between atoms: _173  and  _175
REMARK   73  A    between atoms: _175  and  _176
REMARK   74  A    between atoms: _175  and  _178
REMARK   75  A    between atoms: _178  and  _179
REMARK   76  A    between atoms: _179  and  _180
REMARK   77  A    between atoms: _183  and  _185
REMARK   78  A    between atoms: _185  and  _186
REMARK   79  A    between atoms: _189  and  _191
REMARK   80  A    between atoms: _191  and  _192
REMARK   81  A    between atoms: _191  and  _194
REMARK   82  A    between atoms: _194  and  _195
REMARK   83  A    between atoms: _198  and  _200
REMARK   84  A    between atoms: _200  and  _201
REMARK   85  A    between atoms: _200  and  _203
REMARK   86  A    between atoms: _203  and  _204
REMARK   87  A    between atoms: _207  and  _209
REMARK   88  A    between atoms: _209  and  _210
REMARK   89  A    between atoms: _209  and  _212
REMARK   90  A    between atoms: _212  and  _213
REMARK   91  A    between atoms: _213  and  _214
REMARK   92  A    between atoms: _216  and  _218
REMARK   93  A    between atoms: _218  and  _219
REMARK   94  A    between atoms: _218  and  _221
REMARK   95  A    between atoms: _221  and  _222
REMARK   96  A    between atoms: _222  and  _223
REMARK   97  A    between atoms: _223  and  _224
REMARK   98  A    between atoms: _233  and  _235
REMARK   99  A    between atoms: _235  and  _236
REMARK  100  A    between atoms: _235  and  _238
REMARK  101  A    between atoms: _238  and  _239
REMARK  102  A    between atoms: _239  and  _240
REMARK  103  A    between atoms: _245  and  _247
REMARK  104  A    between atoms: _247  and  _248
REMARK  105  A    between atoms: _247  and  _250
REMARK  106  A    between atoms: _250  and  _251
REMARK  107  A    between atoms: _257  and  _259
REMARK  108  A    between atoms: _259  and  _260
REMARK  109  A    between atoms: _259  and  _262
REMARK  110  A    between atoms: _262  and  _263
REMARK  111  A    between atoms: _266  and  _268
REMARK  112  A    between atoms: _268  and  _269
REMARK  113  A    between atoms: _268  and  _271
REMARK  114  A    between atoms: _271  and  _272
REMARK  115  A    between atoms: _277  and  _279
REMARK  116  A    between atoms: _279  and  _280
REMARK  117  A    between atoms: _279  and  _282
REMARK  118  A    between atoms: _282  and  _283
REMARK  119  A    between atoms: _286  and  _288
REMARK  120  A    between atoms: _288  and  _289
REMARK  121  A    between atoms: _288  and  _291
REMARK  122  A    between atoms: _294  and  _296
REMARK  123  A    between atoms: _296  and  _297
REMARK  124  A    between atoms: _296  and  _299
REMARK  125  A    between atoms: _299  and  _300
REMARK  126  A    between atoms: _300  and  _301
REMARK  127  A    between atoms: _301  and  _302
REMARK  128  A    between atoms: _302  and  _303
REMARK  129  A    between atoms: _307  and  _309
REMARK  130  A    between atoms: _309  and  _310
REMARK  131  A    between atoms: _309  and  _312
REMARK  132  A    between atoms: _312  and  _313
REMARK  133  A    between atoms: _316  and  _318
REMARK  134  A    between atoms: _318  and  _319
REMARK  135  A    between atoms: _318  and  _321
REMARK  136  A    between atoms: _321  and  _322
REMARK  137  A    between atoms: _325  and  _327
REMARK  138  A    between atoms: _327  and  _328
REMARK  139  A    between atoms: _327  and  _330
REMARK  140  A    between atoms: _330  and  _331
REMARK  141  A    between atoms: _334  and  _336
REMARK  142  A    between atoms: _336  and  _337
REMARK  143  A    between atoms: _336  and  _339
REMARK  144  A    between atoms: _339  and  _340
REMARK  145  A    between atoms: _340  and  _341
REMARK  146  A    between atoms: _343  and  _345
REMARK  147  A    between atoms: _345  and  _346
REMARK  148  A    between atoms: _345  and  _348
REMARK  149  A    between atoms: _348  and  _349
REMARK  150  A    between atoms: _349  and  _350
REMARK  151  A    between atoms: _353  and  _355
REMARK  152  A    between atoms: _355  and  _356
REMARK  153  A    between atoms: _355  and  _358
REMARK  154  A    between atoms: _358  and  _359
REMARK  155  A    between atoms: _362  and  _364
REMARK  156  A    between atoms: _364  and  _365
REMARK  157  A    between atoms: _364  and  _367
REMARK  158  A    between atoms: _369  and  _371
REMARK  159  A    between atoms: _371  and  _372
REMARK  160  A    between atoms: _371  and  _374
REMARK  161  A    between atoms: _374  and  _375
REMARK  162  A    between atoms: _378  and  _380
REMARK  163  A    between atoms: _380  and  _381
REMARK  164  A    between atoms: _380  and  _383
REMARK  165  A    between atoms: _383  and  _384
REMARK  166  A    between atoms: _387  and  _389
REMARK  167  A    between atoms: _389  and  _390
REMARK  168  A    between atoms: _392  and  _394
REMARK  169  A    between atoms: _394  and  _395
REMARK  170  A    between atoms: _394  and  _397
REMARK  171  A    between atoms: _397  and  _398
REMARK  172  A    between atoms: _398  and  _399
REMARK  173  A    between atoms: _402  and  _404
REMARK  174  A    between atoms: _404  and  _405
REMARK  175  A    between atoms: _408  and  _410
REMARK  176  A    between atoms: _410  and  _411
REMARK  177  A    between atoms: _410  and  _413
REMARK  178  A    between atoms: _413  and  _414
REMARK  179  A    between atoms: _417  and  _419
REMARK  180  A    between atoms: _419  and  _420
REMARK  181  A    between atoms: _419  and  _422
REMARK  182  A    between atoms: _422  and  _423
REMARK  183  A    between atoms: _428  and  _429
REMARK  184  A    between atoms: _431  and  _433
REMARK  185  A    between atoms: _433  and  _434
REMARK  186  A    between atoms: _433  and  _436
REMARK  187  A    between atoms: _436  and  _437
REMARK  188  A    between atoms: _440  and  _442
REMARK  189  A    between atoms: _442  and  _443
REMARK  190  A    between atoms: _442  and  _445
REMARK  191  A    between atoms: _445  and  _446
REMARK  192  A    between atoms: _452  and  _454
REMARK  193  A    between atoms: _454  and  _455
REMARK  194  A    between atoms: _454  and  _457
REMARK  195  A    between atoms: _460  and  _462
REMARK  196  A    between atoms: _462  and  _463
REMARK  197  A    between atoms: _462  and  _465
REMARK  198  A    between atoms: _465  and  _466
REMARK  199  A    between atoms: _471  and  _473
REMARK  200  A    between atoms: _473  and  _474
REMARK  201  A    between atoms: _473  and  _476
REMARK  202  A    between atoms: _476  and  _477
REMARK  203  A    between atoms: _477  and  _478
REMARK  204  A    between atoms: _478  and  _479
REMARK  205  A    between atoms: _488  and  _490
REMARK  206  A    between atoms: _490  and  _491
REMARK  207  A    between atoms: _490  and  _493
REMARK  208  A    between atoms: _493  and  _494
REMARK  209  A    between atoms: _497  and  _499
REMARK  210  A    between atoms: _499  and  _500
REMARK  211  A    between atoms: _499  and  _502
REMARK  212  A    between atoms: _502  and  _503
REMARK  213  A    between atoms: _506  and  _508
REMARK  214  A    between atoms: _508  and  _509
REMARK  215  A    between atoms: _508  and  _511
REMARK  216  A    between atoms: _511  and  _512
REMARK  217  A    between atoms: _517  and  _519
REMARK  218  A    between atoms: _519  and  _520
REMARK  219  A    between atoms: _519  and  _522
REMARK  220  A    between atoms: _525  and  _527
REMARK  221  A    between atoms: _527  and  _528
REMARK  222  A    between atoms: _527  and  _530
REMARK  223  A    between atoms: _530  and  _531
REMARK  224  A    between atoms: _534  and  _536
REMARK  225  A    between atoms: _536  and  _537
REMARK  226  A    between atoms: _536  and  _539
REMARK  227  A    between atoms: _542  and  _544
REMARK  228  A    between atoms: _544  and  _545
REMARK  229  A    between atoms: _544  and  _547
REMARK  230  A    between atoms: _547  and  _548
REMARK  231  A    between atoms: _550  and  _552
REMARK  232  A    between atoms: _552  and  _553
REMARK  233  A    between atoms: _552  and  _555
REMARK  234  A    between atoms: _555  and  _556
REMARK  235  A    between atoms: _556  and  _557
REMARK  236  A    between atoms: _557  and  _558
REMARK  237  A    between atoms: _558  and  _559
REMARK  238  A    between atoms: _563  and  _565
REMARK  239  A    between atoms: _565  and  _566
REMARK  240  A    between atoms: _565  and  _568
REMARK  241  A    between atoms: _568  and  _569
REMARK  242  A    between atoms: _572  and  _574
REMARK  243  A    between atoms: _574  and  _575
REMARK  244  A    between atoms: _577  and  _579
REMARK  245  A    between atoms: _579  and  _580
REMARK  246  A    between atoms: _579  and  _582
REMARK  247  A    between atoms: _582  and  _583
REMARK  248  A    between atoms: _586  and  _588
REMARK  249  A    between atoms: _588  and  _589
REMARK  250  A    between atoms: _588  and  _591
REMARK  251  A    between atoms: _591  and  _592
REMARK  252  A    between atoms: _598  and  _600
REMARK  253  A    between atoms: _600  and  _601
REMARK  254  A    between atoms: _603  and  _605
REMARK  255  A    between atoms: _605  and  _606
REMARK  256  A    between atoms: _605  and  _608
REMARK  257  A    between atoms: _608  and  _609
REMARK  258  A    between atoms: _612  and  _614
REMARK  259  A    between atoms: _614  and  _615
REMARK  260  A    between atoms: _614  and  _617
REMARK  261  A    between atoms: _617  and  _618
REMARK  262  A    between atoms: _620  and  _622
REMARK  263  A    between atoms: _622  and  _623
REMARK  264  A    between atoms: _622  and  _625
REMARK  265  A    between atoms: _625  and  _626
REMARK  266  A    between atoms: _626  and  _627
REMARK  267  A    between atoms: _627  and  _628
REMARK  268  A    between atoms: _637  and  _639
REMARK  269  A    between atoms: _639  and  _640
REMARK  270  A    between atoms: _639  and  _642
REMARK  271  A    between atoms: _642  and  _643
REMARK  272  A    between atoms: _648  and  _649
REMARK  273  A    between atoms: _651  and  _653
REMARK  274  A    between atoms: _653  and  _654
REMARK  275  A    between atoms: _653  and  _656
REMARK  276  A    between atoms: _656  and  _657
REMARK  277  A    between atoms: _657  and  _658
REMARK  278  A    between atoms: _660  and  _662
REMARK  279  A    between atoms: _662  and  _663
REMARK  280  A    between atoms: _662  and  _665
REMARK  281  A    between atoms: _665  and  _666
REMARK                            x       y       z     vdW  Elec       q    Type
REMARK                         _______ _______ _______ _____ _____    ______ ____
ROOT
ATOM      1  O   HOH     1     -31.943 -38.819  11.606  0.00  0.00    +0.000 OA
ENDROOT
TORSDOF 0
REMARK  Name = ../refined-set-2016/4k9y/4k9y_pocket.pdb
REMARK  281 active torsions:
REMARK  status: ('A' for Active; 'I' for Inactive)
REMARK    1  A    between atoms: _1  and  _3
REMARK    2  A    between atoms: _3  and  _4
REMARK    3  A    between atoms: _3  and  _6
REMARK    4  A    between atoms: _6  and  _7
REMARK    5  A    between atoms: _7  and  _8
REMARK    6  A    between atoms: _8  and  _9
REMARK    7  A    between atoms: _18  and  _20
REMARK    8  A    between atoms: _20  and  _21
REMARK    9  A    between atoms: _20  and  _23
REMARK   10  A    between atoms: _23  and  _24
REMARK   11  A    between atoms: _27  and  _29
REMARK   12  A    between atoms: _29  and  _30
REMARK   13  A    between atoms: _32  and  _34
REMARK   14  A    between atoms: _34  and  _35
REMARK   15  A    between atoms: _34  and  _37
REMARK   16  A    between atoms: _37  and  _38
REMARK   17  A    between atoms: _38  and  _39
REMARK   18  A    between atoms: _42  and  _44
REMARK   19  A    between atoms: _44  and  _45
REMARK   20  A    between atoms: _44  and  _47
REMARK   21  A    between atoms: _47  and  _48
REMARK   22  A    between atoms: _54  and  _56
REMARK   23  A    between atoms: _56  and  _57
REMARK   24  A    between atoms: _56  and  _59
REMARK   25  A    between atoms: _62  and  _64
REMARK   26  A    between atoms: _64  and  _65
REMARK   27  A    between atoms: _64  and  _67
REMARK   28  A    between atoms: _67  and  _68
REMARK   29  A    between atoms: _73  and  _75
REMARK   30  A    between atoms: _75  and  _76
REMARK   31  A    between atoms: _75  and  _78
REMARK   32  A    between atoms: _78  and  _79
REMARK   33  A    between atoms: _79  and  _80
REMARK   34  A    between atoms: _85  and  _87
REMARK   35  A    between atoms: _87  and  _88
REMARK   36  A    between atoms: _91  and  _93
REMARK   37  A    between atoms: _93  and  _94
REMARK   38  A    between atoms: _93  and  _96
REMARK   39  A    between atoms: _99  and  _101
REMARK   40  A    between atoms: _101  and  _102
REMARK   41  A    between atoms: _105  and  _107
REMARK   42  A    between atoms: _107  and  _108
REMARK   43  A    between atoms: _107  and  _110
REMARK   44  A    between atoms: _110  and  _111
REMARK   45  A    between atoms: _114  and  _116
REMARK   46  A    between atoms: _116  and  _117
REMARK   47  A    between atoms: _116  and  _119
REMARK   48  A    between atoms: _119  and  _120
REMARK   49  A    between atoms: _120  and  _121
REMARK   50  A    between atoms: _121  and  _122
REMARK   51  A    between atoms: _122  and  _123
REMARK   52  A    between atoms: _127  and  _129
REMARK   53  A    between atoms: _129  and  _130
REMARK   54  A    between atoms: _129  and  _132
REMARK   55  A    between atoms: _132  and  _133
REMARK   56  A    between atoms: _133  and  _134
REMARK   57  A    between atoms: _134  and  _135
REMARK   58  A    between atoms: _135  and  _136
REMARK   59  A    between atoms: _140  and  _142
REMARK   60  A    between atoms: _142  and  _143
REMARK   61  A    between atoms: _142  and  _145
REMARK   62  A    between atoms: _145  and  _146
REMARK   63  A    between atoms: _152  and  _154
REMARK   64  A    between atoms: _154  and  _155
REMARK   65  A    between atoms: _154  and  _157
REMARK   66  A    between atoms: _157  and  _158
REMARK   67  A    between atoms: _161  and  _163
REMARK   68  A    between atoms: _163  and  _164
REMARK   69  A    between atoms: _163  and  _166
REMARK   70  A    between atoms: _166  and  _167
REMARK   71  A    between atoms: _167  and  _168
REMARK   72  A    between atoms: _173  and  _175
REMARK   73  A    between atoms: _175  and  _176
REMARK   74  A    between atoms: _175  and  _178
REMARK   75  A    between atoms: _178  and  _179
REMARK   76  A    between atoms: _179  and  _180
REMARK   77  A    between atoms: _183  and  _185
REMARK   78  A    between atoms: _185  and  _186
REMARK   79  A    between atoms: _189  and  _191
REMARK   80  A    between atoms: _191  and  _192
REMARK   81  A    between atoms: _191  and  _194
REMARK   82  A    between atoms: _194  and  _195
REMARK   83  A    between atoms: _198  and  _200
REMARK   84  A    between atoms: _200  and  _201
REMARK   85  A    between atoms: _200  and  _203
REMARK   86  A    between atoms: _203  and  _204
REMARK   87  A    between atoms: _207  and  _209
REMARK   88  A    between atoms: _209  and  _210
REMARK   89  A    between atoms: _209  and  _212
REMARK   90  A    between atoms: _212  and  _213
REMARK   91  A    between atoms: _213  and  _214
REMARK   92  A    between atoms: _216  and  _218
REMARK   93  A    between atoms: _218  and  _219
REMARK   94  A    between atoms: _218  and  _221
REMARK   95  A    between atoms: _221  and  _222
REMARK   96  A    between atoms: _222  and  _223
REMARK   97  A    between atoms: _223  and  _224
REMARK   98  A    between atoms: _233  and  _235
REMARK   99  A    between atoms: _235  and  _236
REMARK  100  A    between atoms: _235  and  _238
REMARK  101  A    between atoms: _238  and  _239
REMARK  102  A    between atoms: _239  and  _240
REMARK  103  A    between atoms: _245  and  _247
REMARK  104  A    between atoms: _247  and  _248
REMARK  105  A    between atoms: _247  and  _250
REMARK  106  A    between atoms: _250  and  _251
REMARK  107  A    between atoms: _257  and  _259
REMARK  108  A    between atoms: _259  and  _260
REMARK  109  A    between atoms: _259  and  _262
REMARK  110  A    between atoms: _262  and  _263
REMARK  111  A    between atoms: _266  and  _268
REMARK  112  A    between atoms: _268  and  _269
REMARK  113  A    between atoms: _268  and  _271
REMARK  114  A    between atoms: _271  and  _272
REMARK  115  A    between atoms: _277  and  _279
REMARK  116  A    between atoms: _279  and  _280
REMARK  117  A    between atoms: _279  and  _282
REMARK  118  A    between atoms: _282  and  _283
REMARK  119  A    between atoms: _286  and  _288
REMARK  120  A    between atoms: _288  and  _289
REMARK  121  A    between atoms: _288  and  _291
REMARK  122  A    between atoms: _294  and  _296
REMARK  123  A    between atoms: _296  and  _297
REMARK  124  A    between atoms: _296  and  _299
REMARK  125  A    between atoms: _299  and  _300
REMARK  126  A    between atoms: _300  and  _301
REMARK  127  A    between atoms: _301  and  _302
REMARK  128  A    between atoms: _302  and  _303
REMARK  129  A    between atoms: _307  and  _309
REMARK  130  A    between atoms: _309  and  _310
REMARK  131  A    between atoms: _309  and  _312
REMARK  132  A    between atoms: _312  and  _313
REMARK  133  A    between atoms: _316  and  _318
REMARK  134  A    between atoms: _318  and  _319
REMARK  135  A    between atoms: _318  and  _321
REMARK  136  A    between atoms: _321  and  _322
REMARK  137  A    between atoms: _325  and  _327
REMARK  138  A    between atoms: _327  and  _328
REMARK  139  A    between atoms: _327  and  _330
REMARK  140  A    between atoms: _330  and  _331
REMARK  141  A    between atoms: _334  and  _336
REMARK  142  A    between atoms: _336  and  _337
REMARK  143  A    between atoms: _336  and  _339
REMARK  144  A    between atoms: _339  and  _340
REMARK  145  A    between atoms: _340  and  _341
REMARK  146  A    between atoms: _343  and  _345
REMARK  147  A    between atoms: _345  and  _346
REMARK  148  A    between atoms: _345  and  _348
REMARK  149  A    between atoms: _348  and  _349
REMARK  150  A    between atoms: _349  and  _350
REMARK  151  A    between atoms: _353  and  _355
REMARK  152  A    between atoms: _355  and  _356
REMARK  153  A    between atoms: _355  and  _358
REMARK  154  A    between atoms: _358  and  _359
REMARK  155  A    between atoms: _362  and  _364
REMARK  156  A    between atoms: _364  and  _365
REMARK  157  A    between atoms: _364  and  _367
REMARK  158  A    between atoms: _369  and  _371
REMARK  159  A    between atoms: _371  and  _372
REMARK  160  A    between atoms: _371  and  _374
REMARK  161  A    between atoms: _374  and  _375
REMARK  162  A    between atoms: _378  and  _380
REMARK  163  A    between atoms: _380  and  _381
REMARK  164  A    between atoms: _380  and  _383
REMARK  165  A    between atoms: _383  and  _384
REMARK  166  A    between atoms: _387  and  _389
REMARK  167  A    between atoms: _389  and  _390
REMARK  168  A    between atoms: _392  and  _394
REMARK  169  A    between atoms: _394  and  _395
REMARK  170  A    between atoms: _394  and  _397
REMARK  171  A    between atoms: _397  and  _398
REMARK  172  A    between atoms: _398  and  _399
REMARK  173  A    between atoms: _402  and  _404
REMARK  174  A    between atoms: _404  and  _405
REMARK  175  A    between atoms: _408  and  _410
REMARK  176  A    between atoms: _410  and  _411
REMARK  177  A    between atoms: _410  and  _413
REMARK  178  A    between atoms: _413  and  _414
REMARK  179  A    between atoms: _417  and  _419
REMARK  180  A    between atoms: _419  and  _420
REMARK  181  A    between atoms: _419  and  _422
REMARK  182  A    between atoms: _422  and  _423
REMARK  183  A    between atoms: _428  and  _429
REMARK  184  A    between atoms: _431  and  _433
REMARK  185  A    between atoms: _433  and  _434
REMARK  186  A    between atoms: _433  and  _436
REMARK  187  A    between atoms: _436  and  _437
REMARK  188  A    between atoms: _440  and  _442
REMARK  189  A    between atoms: _442  and  _443
REMARK  190  A    between atoms: _442  and  _445
REMARK  191  A    between atoms: _445  and  _446
REMARK  192  A    between atoms: _452  and  _454
REMARK  193  A    between atoms: _454  and  _455
REMARK  194  A    between atoms: _454  and  _457
REMARK  195  A    between atoms: _460  and  _462
REMARK  196  A    between atoms: _462  and  _463
REMARK  197  A    between atoms: _462  and  _465
REMARK  198  A    between atoms: _465  and  _466
REMARK  199  A    between atoms: _471  and  _473
REMARK  200  A    between atoms: _473  and  _474
REMARK  201  A    between atoms: _473  and  _476
REMARK  202  A    between atoms: _476  and  _477
REMARK  203  A    between atoms: _477  and  _478
REMARK  204  A    between atoms: _478  and  _479
REMARK  205  A    between atoms: _488  and  _490
REMARK  206  A    between atoms: _490  and  _491
REMARK  207  A    between atoms: _490  and  _493
REMARK  208  A    between atoms: _493  and  _494
REMARK  209  A    between atoms: _497  and  _499
REMARK  210  A    between atoms: _499  and  _500
REMARK  211  A    between atoms: _499  and  _502
REMARK  212  A    between atoms: _502  and  _503
REMARK  213  A    between atoms: _506  and  _508
REMARK  214  A    between atoms: _508  and  _509
REMARK  215  A    between atoms: _508  and  _511
REMARK  216  A    between atoms: _511  and  _512
REMARK  217  A    between atoms: _517  and  _519
REMARK  218  A    between atoms: _519  and  _520
REMARK  219  A    between atoms: _519  and  _522
REMARK  220  A    between atoms: _525  and  _527
REMARK  221  A    between atoms: _527  and  _528
REMARK  222  A    between atoms: _527  and  _530
REMARK  223  A    between atoms: _530  and  _531
REMARK  224  A    between atoms: _534  and  _536
REMARK  225  A    between atoms: _536  and  _537
REMARK  226  A    between atoms: _536  and  _539
REMARK  227  A    between atoms: _542  and  _544
REMARK  228  A    between atoms: _544  and  _545
REMARK  229  A    between atoms: _544  and  _547
REMARK  230  A    between atoms: _547  and  _548
REMARK  231  A    between atoms: _550  and  _552
REMARK  232  A    between atoms: _552  and  _553
REMARK  233  A    between atoms: _552  and  _555
REMARK  234  A    between atoms: _555  and  _556
REMARK  235  A    between atoms: _556  and  _557
REMARK  236  A    between atoms: _557  and  _558
REMARK  237  A    between atoms: _558  and  _559
REMARK  238  A    between atoms: _563  and  _565
REMARK  239  A    between atoms: _565  and  _566
REMARK  240  A    between atoms: _565  and  _568
REMARK  241  A    between atoms: _568  and  _569
REMARK  242  A    between atoms: _572  and  _574
REMARK  243  A    between atoms: _574  and  _575
REMARK  244  A    between atoms: _577  and  _579
REMARK  245  A    between atoms: _579  and  _580
REMARK  246  A    between atoms: _579  and  _582
REMARK  247  A    between atoms: _582  and  _583
REMARK  248  A    between atoms: _586  and  _588
REMARK  249  A    between atoms: _588  and  _589
REMARK  250  A    between atoms: _588  and  _591
REMARK  251  A    between atoms: _591  and  _592
REMARK  252  A    between atoms: _598  and  _600
REMARK  253  A    between atoms: _600  and  _601
REMARK  254  A    between atoms: _603  and  _605
REMARK  255  A    between atoms: _605  and  _606
REMARK  256  A    between atoms: _605  and  _608
REMARK  257  A    between atoms: _608  and  _609
REMARK  258  A    between atoms: _612  and  _614
REMARK  259  A    between atoms: _614  and  _615
REMARK  260  A    between atoms: _614  and  _617
REMARK  261  A    between atoms: _617  and  _618
REMARK  262  A    between atoms: _620  and  _622
REMARK  263  A    between atoms: _622  and  _623
REMARK  264  A    between atoms: _622  and  _625
REMARK  265  A    between atoms: _625  and  _626
REMARK  266  A    between atoms: _626  and  _627
REMARK  267  A    between atoms: _627  and  _628
REMARK  268  A    between atoms: _637  and  _639
REMARK  269  A    between atoms: _639  and  _640
REMARK  270  A    between atoms: _639  and  _642
REMARK  271  A    between atoms: _642  and  _643
REMARK  272  A    between atoms: _648  and  _649
REMARK  273  A    between atoms: _651  and  _653
REMARK  274  A    between atoms: _653  and  _654
REMARK  275  A    between atoms: _653  and  _656
REMARK  276  A    between atoms: _656  and  _657
REMARK  277  A    between atoms: _657  and  _658
REMARK  278  A    between atoms: _660  and  _662
REMARK  279  A    between atoms: _662  and  _663
REMARK  280  A    between atoms: _662  and  _665
REMARK  281  A    between atoms: _665  and  _666
REMARK                            x       y       z     vdW  Elec       q    Type
REMARK                         _______ _______ _______ _____ _____    ______ ____
ROOT
ATOM      1  O   HOH     1     -18.499 -21.115   1.062  0.00  0.00    +0.000 OA
ENDROOT
TORSDOF 0
REMARK  Name = ../refined-set-2016/4k9y/4k9y_pocket.pdb
REMARK  281 active torsions:
REMARK  status: ('A' for Active; 'I' for Inactive)
REMARK    1  A    between atoms: _1  and  _3
REMARK    2  A    between atoms: _3  and  _4
REMARK    3  A    between atoms: _3  and  _6
REMARK    4  A    between atoms: _6  and  _7
REMARK    5  A    between atoms: _7  and  _8
REMARK    6  A    between atoms: _8  and  _9
REMARK    7  A    between atoms: _18  and  _20
REMARK    8  A    between atoms: _20  and  _21
REMARK    9  A    between atoms: _20  and  _23
REMARK   10  A    between atoms: _23  and  _24
REMARK   11  A    between atoms: _27  and  _29
REMARK   12  A    between atoms: _29  and  _30
REMARK   13  A    between atoms: _32  and  _34
REMARK   14  A    between atoms: _34  and  _35
REMARK   15  A    between atoms: _34  and  _37
REMARK   16  A    between atoms: _37  and  _38
REMARK   17  A    between atoms: _38  and  _39
REMARK   18  A    between atoms: _42  and  _44
REMARK   19  A    between atoms: _44  and  _45
REMARK   20  A    between atoms: _44  and  _47
REMARK   21  A    between atoms: _47  and  _48
REMARK   22  A    between atoms: _54  and  _56
REMARK   23  A    between atoms: _56  and  _57
REMARK   24  A    between atoms: _56  and  _59
REMARK   25  A    between atoms: _62  and  _64
REMARK   26  A    between atoms: _64  and  _65
REMARK   27  A    between atoms: _64  and  _67
REMARK   28  A    between atoms: _67  and  _68
REMARK   29  A    between atoms: _73  and  _75
REMARK   30  A    between atoms: _75  and  _76
REMARK   31  A    between atoms: _75  and  _78
REMARK   32  A    between atoms: _78  and  _79
REMARK   33  A    between atoms: _79  and  _80
REMARK   34  A    between atoms: _85  and  _87
REMARK   35  A    between atoms: _87  and  _88
REMARK   36  A    between atoms: _91  and  _93
REMARK   37  A    between atoms: _93  and  _94
REMARK   38  A    between atoms: _93  and  _96
REMARK   39  A    between atoms: _99  and  _101
REMARK   40  A    between atoms: _101  and  _102
REMARK   41  A    between atoms: _105  and  _107
REMARK   42  A    between atoms: _107  and  _108
REMARK   43  A    between atoms: _107  and  _110
REMARK   44  A    between atoms: _110  and  _111
REMARK   45  A    between atoms: _114  and  _116
REMARK   46  A    between atoms: _116  and  _117
REMARK   47  A    between atoms: _116  and  _119
REMARK   48  A    between atoms: _119  and  _120
REMARK   49  A    between atoms: _120  and  _121
REMARK   50  A    between atoms: _121  and  _122
REMARK   51  A    between atoms: _122  and  _123
REMARK   52  A    between atoms: _127  and  _129
REMARK   53  A    between atoms: _129  and  _130
REMARK   54  A    between atoms: _129  and  _132
REMARK   55  A    between atoms: _132  and  _133
REMARK   56  A    between atoms: _133  and  _134
REMARK   57  A    between atoms: _134  and  _135
REMARK   58  A    between atoms: _135  and  _136
REMARK   59  A    between atoms: _140  and  _142
REMARK   60  A    between atoms: _142  and  _143
REMARK   61  A    between atoms: _142  and  _145
REMARK   62  A    between atoms: _145  and  _146
REMARK   63  A    between atoms: _152  and  _154
REMARK   64  A    between atoms: _154  and  _155
REMARK   65  A    between atoms: _154  and  _157
REMARK   66  A    between atoms: _157  and  _158
REMARK   67  A    between atoms: _161  and  _163
REMARK   68  A    between atoms: _163  and  _164
REMARK   69  A    between atoms: _163  and  _166
REMARK   70  A    between atoms: _166  and  _167
REMARK   71  A    between atoms: _167  and  _168
REMARK   72  A    between atoms: _173  and  _175
REMARK   73  A    between atoms: _175  and  _176
REMARK   74  A    between atoms: _175  and  _178
REMARK   75  A    between atoms: _178  and  _179
REMARK   76  A    between atoms: _179  and  _180
REMARK   77  A    between atoms: _183  and  _185
REMARK   78  A    between atoms: _185  and  _186
REMARK   79  A    between atoms: _189  and  _191
REMARK   80  A    between atoms: _191  and  _192
REMARK   81  A    between atoms: _191  and  _194
REMARK   82  A    between atoms: _194  and  _195
REMARK   83  A    between atoms: _198  and  _200
REMARK   84  A    between atoms: _200  and  _201
REMARK   85  A    between atoms: _200  and  _203
REMARK   86  A    between atoms: _203  and  _204
REMARK   87  A    between atoms: _207  and  _209
REMARK   88  A    between atoms: _209  and  _210
REMARK   89  A    between atoms: _209  and  _212
REMARK   90  A    between atoms: _212  and  _213
REMARK   91  A    between atoms: _213  and  _214
REMARK   92  A    between atoms: _216  and  _218
REMARK   93  A    between atoms: _218  and  _219
REMARK   94  A    between atoms: _218  and  _221
REMARK   95  A    between atoms: _221  and  _222
REMARK   96  A    between atoms: _222  and  _223
REMARK   97  A    between atoms: _223  and  _224
REMARK   98  A    between atoms: _233  and  _235
REMARK   99  A    between atoms: _235  and  _236
REMARK  100  A    between atoms: _235  and  _238
REMARK  101  A    between atoms: _238  and  _239
REMARK  102  A    between atoms: _239  and  _240
REMARK  103  A    between atoms: _245  and  _247
REMARK  104  A    between atoms: _247  and  _248
REMARK  105  A    between atoms: _247  and  _250
REMARK  106  A    between atoms: _250  and  _251
REMARK  107  A    between atoms: _257  and  _259
REMARK  108  A    between atoms: _259  and  _260
REMARK  109  A    between atoms: _259  and  _262
REMARK  110  A    between atoms: _262  and  _263
REMARK  111  A    between atoms: _266  and  _268
REMARK  112  A    between atoms: _268  and  _269
REMARK  113  A    between atoms: _268  and  _271
REMARK  114  A    between atoms: _271  and  _272
REMARK  115  A    between atoms: _277  and  _279
REMARK  116  A    between atoms: _279  and  _280
REMARK  117  A    between atoms: _279  and  _282
REMARK  118  A    between atoms: _282  and  _283
REMARK  119  A    between atoms: _286  and  _288
REMARK  120  A    between atoms: _288  and  _289
REMARK  121  A    between atoms: _288  and  _291
REMARK  122  A    between atoms: _294  and  _296
REMARK  123  A    between atoms: _296  and  _297
REMARK  124  A    between atoms: _296  and  _299
REMARK  125  A    between atoms: _299  and  _300
REMARK  126  A    between atoms: _300  and  _301
REMARK  127  A    between atoms: _301  and  _302
REMARK  128  A    between atoms: _302  and  _303
REMARK  129  A    between atoms: _307  and  _309
REMARK  130  A    between atoms: _309  and  _310
REMARK  131  A    between atoms: _309  and  _312
REMARK  132  A    between atoms: _312  and  _313
REMARK  133  A    between atoms: _316  and  _318
REMARK  134  A    between atoms: _318  and  _319
REMARK  135  A    between atoms: _318  and  _321
REMARK  136  A    between atoms: _321  and  _322
REMARK  137  A    between atoms: _325  and  _327
REMARK  138  A    between atoms: _327  and  _328
REMARK  139  A    between atoms: _327  and  _330
REMARK  140  A    between atoms: _330  and  _331
REMARK  141  A    between atoms: _334  and  _336
REMARK  142  A    between atoms: _336  and  _337
REMARK  143  A    between atoms: _336  and  _339
REMARK  144  A    between atoms: _339  and  _340
REMARK  145  A    between atoms: _340  and  _341
REMARK  146  A    between atoms: _343  and  _345
REMARK  147  A    between atoms: _345  and  _346
REMARK  148  A    between atoms: _345  and  _348
REMARK  149  A    between atoms: _348  and  _349
REMARK  150  A    between atoms: _349  and  _350
REMARK  151  A    between atoms: _353  and  _355
REMARK  152  A    between atoms: _355  and  _356
REMARK  153  A    between atoms: _355  and  _358
REMARK  154  A    between atoms: _358  and  _359
REMARK  155  A    between atoms: _362  and  _364
REMARK  156  A    between atoms: _364  and  _365
REMARK  157  A    between atoms: _364  and  _367
REMARK  158  A    between atoms: _369  and  _371
REMARK  159  A    between atoms: _371  and  _372
REMARK  160  A    between atoms: _371  and  _374
REMARK  161  A    between atoms: _374  and  _375
REMARK  162  A    between atoms: _378  and  _380
REMARK  163  A    between atoms: _380  and  _381
REMARK  164  A    between atoms: _380  and  _383
REMARK  165  A    between atoms: _383  and  _384
REMARK  166  A    between atoms: _387  and  _389
REMARK  167  A    between atoms: _389  and  _390
REMARK  168  A    between atoms: _392  and  _394
REMARK  169  A    between atoms: _394  and  _395
REMARK  170  A    between atoms: _394  and  _397
REMARK  171  A    between atoms: _397  and  _398
REMARK  172  A    between atoms: _398  and  _399
REMARK  173  A    between atoms: _402  and  _404
REMARK  174  A    between atoms: _404  and  _405
REMARK  175  A    between atoms: _408  and  _410
REMARK  176  A    between atoms: _410  and  _411
REMARK  177  A    between atoms: _410  and  _413
REMARK  178  A    between atoms: _413  and  _414
REMARK  179  A    between atoms: _417  and  _419
REMARK  180  A    between atoms: _419  and  _420
REMARK  181  A    between atoms: _419  and  _422
REMARK  182  A    between atoms: _422  and  _423
REMARK  183  A    between atoms: _428  and  _429
REMARK  184  A    between atoms: _431  and  _433
REMARK  185  A    between atoms: _433  and  _434
REMARK  186  A    between atoms: _433  and  _436
REMARK  187  A    between atoms: _436  and  _437
REMARK  188  A    between atoms: _440  and  _442
REMARK  189  A    between atoms: _442  and  _443
REMARK  190  A    between atoms: _442  and  _445
REMARK  191  A    between atoms: _445  and  _446
REMARK  192  A    between atoms: _452  and  _454
REMARK  193  A    between atoms: _454  and  _455
REMARK  194  A    between atoms: _454  and  _457
REMARK  195  A    between atoms: _460  and  _462
REMARK  196  A    between atoms: _462  and  _463
REMARK  197  A    between atoms: _462  and  _465
REMARK  198  A    between atoms: _465  and  _466
REMARK  199  A    between atoms: _471  and  _473
REMARK  200  A    between atoms: _473  and  _474
REMARK  201  A    between atoms: _473  and  _476
REMARK  202  A    between atoms: _476  and  _477
REMARK  203  A    between atoms: _477  and  _478
REMARK  204  A    between atoms: _478  and  _479
REMARK  205  A    between atoms: _488  and  _490
REMARK  206  A    between atoms: _490  and  _491
REMARK  207  A    between atoms: _490  and  _493
REMARK  208  A    between atoms: _493  and  _494
REMARK  209  A    between atoms: _497  and  _499
REMARK  210  A    between atoms: _499  and  _500
REMARK  211  A    between atoms: _499  and  _502
REMARK  212  A    between atoms: _502  and  _503
REMARK  213  A    between atoms: _506  and  _508
REMARK  214  A    between atoms: _508  and  _509
REMARK  215  A    between atoms: _508  and  _511
REMARK  216  A    between atoms: _511  and  _512
REMARK  217  A    between atoms: _517  and  _519
REMARK  218  A    between atoms: _519  and  _520
REMARK  219  A    between atoms: _519  and  _522
REMARK  220  A    between atoms: _525  and  _527
REMARK  221  A    between atoms: _527  and  _528
REMARK  222  A    between atoms: _527  and  _530
REMARK  223  A    between atoms: _530  and  _531
REMARK  224  A    between atoms: _534  and  _536
REMARK  225  A    between atoms: _536  and  _537
REMARK  226  A    between atoms: _536  and  _539
REMARK  227  A    between atoms: _542  and  _544
REMARK  228  A    between atoms: _544  and  _545
REMARK  229  A    between atoms: _544  and  _547
REMARK  230  A    between atoms: _547  and  _548
REMARK  231  A    between atoms: _550  and  _552
REMARK  232  A    between atoms: _552  and  _553
REMARK  233  A    between atoms: _552  and  _555
REMARK  234  A    between atoms: _555  and  _556
REMARK  235  A    between atoms: _556  and  _557
REMARK  236  A    between atoms: _557  and  _558
REMARK  237  A    between atoms: _558  and  _559
REMARK  238  A    between atoms: _563  and  _565
REMARK  239  A    between atoms: _565  and  _566
REMARK  240  A    between atoms: _565  and  _568
REMARK  241  A    between atoms: _568  and  _569
REMARK  242  A    between atoms: _572  and  _574
REMARK  243  A    between atoms: _574  and  _575
REMARK  244  A    between atoms: _577  and  _579
REMARK  245  A    between atoms: _579  and  _580
REMARK  246  A    between atoms: _579  and  _582
REMARK  247  A    between atoms: _582  and  _583
REMARK  248  A    between atoms: _586  and  _588
REMARK  249  A    between atoms: _588  and  _589
REMARK  250  A    between atoms: _588  and  _591
REMARK  251  A    between atoms: _591  and  _592
REMARK  252  A    between atoms: _598  and  _600
REMARK  253  A    between atoms: _600  and  _601
REMARK  254  A    between atoms: _603  and  _605
REMARK  255  A    between atoms: _605  and  _606
REMARK  256  A    between atoms: _605  and  _608
REMARK  257  A    between atoms: _608  and  _609
REMARK  258  A    between atoms: _612  and  _614
REMARK  259  A    between atoms: _614  and  _615
REMARK  260  A    between atoms: _614  and  _617
REMARK  261  A    between atoms: _617  and  _618
REMARK  262  A    between atoms: _620  and  _622
REMARK  263  A    between atoms: _622  and  _623
REMARK  264  A    between atoms: _622  and  _625
REMARK  265  A    between atoms: _625  and  _626
REMARK  266  A    between atoms: _626  and  _627
REMARK  267  A    between atoms: _627  and  _628
REMARK  268  A    between atoms: _637  and  _639
REMARK  269  A    between atoms: _639  and  _640
REMARK  270  A    between atoms: _639  and  _642
REMARK  271  A    between atoms: _642  and  _643
REMARK  272  A    between atoms: _648  and  _649
REMARK  273  A    between atoms: _651  and  _653
REMARK  274  A    between atoms: _653  and  _654
REMARK  275  A    between atoms: _653  and  _656
REMARK  276  A    between atoms: _656  and  _657
REMARK  277  A    between atoms: _657  and  _658
REMARK  278  A    between atoms: _660  and  _662
REMARK  279  A    between atoms: _662  and  _663
REMARK  280  A    between atoms: _662  and  _665
REMARK  281  A    between atoms: _665  and  _666
REMARK                            x       y       z     vdW  Elec       q    Type
REMARK                         _______ _______ _______ _____ _____    ______ ____
ROOT
ATOM      1  O   HOH     1     -15.455 -22.760   2.608  0.00  0.00    +0.000 OA
ENDROOT
TORSDOF 0
REMARK  Name = ../refined-set-2016/4k9y/4k9y_pocket.pdb
REMARK  281 active torsions:
REMARK  status: ('A' for Active; 'I' for Inactive)
REMARK    1  A    between atoms: _1  and  _3
REMARK    2  A    between atoms: _3  and  _4
REMARK    3  A    between atoms: _3  and  _6
REMARK    4  A    between atoms: _6  and  _7
REMARK    5  A    between atoms: _7  and  _8
REMARK    6  A    between atoms: _8  and  _9
REMARK    7  A    between atoms: _18  and  _20
REMARK    8  A    between atoms: _20  and  _21
REMARK    9  A    between atoms: _20  and  _23
REMARK   10  A    between atoms: _23  and  _24
REMARK   11  A    between atoms: _27  and  _29
REMARK   12  A    between atoms: _29  and  _30
REMARK   13  A    between atoms: _32  and  _34
REMARK   14  A    between atoms: _34  and  _35
REMARK   15  A    between atoms: _34  and  _37
REMARK   16  A    between atoms: _37  and  _38
REMARK   17  A    between atoms: _38  and  _39
REMARK   18  A    between atoms: _42  and  _44
REMARK   19  A    between atoms: _44  and  _45
REMARK   20  A    between atoms: _44  and  _47
REMARK   21  A    between atoms: _47  and  _48
REMARK   22  A    between atoms: _54  and  _56
REMARK   23  A    between atoms: _56  and  _57
REMARK   24  A    between atoms: _56  and  _59
REMARK   25  A    between atoms: _62  and  _64
REMARK   26  A    between atoms: _64  and  _65
REMARK   27  A    between atoms: _64  and  _67
REMARK   28  A    between atoms: _67  and  _68
REMARK   29  A    between atoms: _73  and  _75
REMARK   30  A    between atoms: _75  and  _76
REMARK   31  A    between atoms: _75  and  _78
REMARK   32  A    between atoms: _78  and  _79
REMARK   33  A    between atoms: _79  and  _80
REMARK   34  A    between atoms: _85  and  _87
REMARK   35  A    between atoms: _87  and  _88
REMARK   36  A    between atoms: _91  and  _93
REMARK   37  A    between atoms: _93  and  _94
REMARK   38  A    between atoms: _93  and  _96
REMARK   39  A    between atoms: _99  and  _101
REMARK   40  A    between atoms: _101  and  _102
REMARK   41  A    between atoms: _105  and  _107
REMARK   42  A    between atoms: _107  and  _108
REMARK   43  A    between atoms: _107  and  _110
REMARK   44  A    between atoms: _110  and  _111
REMARK   45  A    between atoms: _114  and  _116
REMARK   46  A    between atoms: _116  and  _117
REMARK   47  A    between atoms: _116  and  _119
REMARK   48  A    between atoms: _119  and  _120
REMARK   49  A    between atoms: _120  and  _121
REMARK   50  A    between atoms: _121  and  _122
REMARK   51  A    between atoms: _122  and  _123
REMARK   52  A    between atoms: _127  and  _129
REMARK   53  A    between atoms: _129  and  _130
REMARK   54  A    between atoms: _129  and  _132
REMARK   55  A    between atoms: _132  and  _133
REMARK   56  A    between atoms: _133  and  _134
REMARK   57  A    between atoms: _134  and  _135
REMARK   58  A    between atoms: _135  and  _136
REMARK   59  A    between atoms: _140  and  _142
REMARK   60  A    between atoms: _142  and  _143
REMARK   61  A    between atoms: _142  and  _145
REMARK   62  A    between atoms: _145  and  _146
REMARK   63  A    between atoms: _152  and  _154
REMARK   64  A    between atoms: _154  and  _155
REMARK   65  A    between atoms: _154  and  _157
REMARK   66  A    between atoms: _157  and  _158
REMARK   67  A    between atoms: _161  and  _163
REMARK   68  A    between atoms: _163  and  _164
REMARK   69  A    between atoms: _163  and  _166
REMARK   70  A    between atoms: _166  and  _167
REMARK   71  A    between atoms: _167  and  _168
REMARK   72  A    between atoms: _173  and  _175
REMARK   73  A    between atoms: _175  and  _176
REMARK   74  A    between atoms: _175  and  _178
REMARK   75  A    between atoms: _178  and  _179
REMARK   76  A    between atoms: _179  and  _180
REMARK   77  A    between atoms: _183  and  _185
REMARK   78  A    between atoms: _185  and  _186
REMARK   79  A    between atoms: _189  and  _191
REMARK   80  A    between atoms: _191  and  _192
REMARK   81  A    between atoms: _191  and  _194
REMARK   82  A    between atoms: _194  and  _195
REMARK   83  A    between atoms: _198  and  _200
REMARK   84  A    between atoms: _200  and  _201
REMARK   85  A    between atoms: _200  and  _203
REMARK   86  A    between atoms: _203  and  _204
REMARK   87  A    between atoms: _207  and  _209
REMARK   88  A    between atoms: _209  and  _210
REMARK   89  A    between atoms: _209  and  _212
REMARK   90  A    between atoms: _212  and  _213
REMARK   91  A    between atoms: _213  and  _214
REMARK   92  A    between atoms: _216  and  _218
REMARK   93  A    between atoms: _218  and  _219
REMARK   94  A    between atoms: _218  and  _221
REMARK   95  A    between atoms: _221  and  _222
REMARK   96  A    between atoms: _222  and  _223
REMARK   97  A    between atoms: _223  and  _224
REMARK   98  A    between atoms: _233  and  _235
REMARK   99  A    between atoms: _235  and  _236
REMARK  100  A    between atoms: _235  and  _238
REMARK  101  A    between atoms: _238  and  _239
REMARK  102  A    between atoms: _239  and  _240
REMARK  103  A    between atoms: _245  and  _247
REMARK  104  A    between atoms: _247  and  _248
REMARK  105  A    between atoms: _247  and  _250
REMARK  106  A    between atoms: _250  and  _251
REMARK  107  A    between atoms: _257  and  _259
REMARK  108  A    between atoms: _259  and  _260
REMARK  109  A    between atoms: _259  and  _262
REMARK  110  A    between atoms: _262  and  _263
REMARK  111  A    between atoms: _266  and  _268
REMARK  112  A    between atoms: _268  and  _269
REMARK  113  A    between atoms: _268  and  _271
REMARK  114  A    between atoms: _271  and  _272
REMARK  115  A    between atoms: _277  and  _279
REMARK  116  A    between atoms: _279  and  _280
REMARK  117  A    between atoms: _279  and  _282
REMARK  118  A    between atoms: _282  and  _283
REMARK  119  A    between atoms: _286  and  _288
REMARK  120  A    between atoms: _288  and  _289
REMARK  121  A    between atoms: _288  and  _291
REMARK  122  A    between atoms: _294  and  _296
REMARK  123  A    between atoms: _296  and  _297
REMARK  124  A    between atoms: _296  and  _299
REMARK  125  A    between atoms: _299  and  _300
REMARK  126  A    between atoms: _300  and  _301
REMARK  127  A    between atoms: _301  and  _302
REMARK  128  A    between atoms: _302  and  _303
REMARK  129  A    between atoms: _307  and  _309
REMARK  130  A    between atoms: _309  and  _310
REMARK  131  A    between atoms: _309  and  _312
REMARK  132  A    between atoms: _312  and  _313
REMARK  133  A    between atoms: _316  and  _318
REMARK  134  A    between atoms: _318  and  _319
REMARK  135  A    between atoms: _318  and  _321
REMARK  136  A    between atoms: _321  and  _322
REMARK  137  A    between atoms: _325  and  _327
REMARK  138  A    between atoms: _327  and  _328
REMARK  139  A    between atoms: _327  and  _330
REMARK  140  A    between atoms: _330  and  _331
REMARK  141  A    between atoms: _334  and  _336
REMARK  142  A    between atoms: _336  and  _337
REMARK  143  A    between atoms: _336  and  _339
REMARK  144  A    between atoms: _339  and  _340
REMARK  145  A    between atoms: _340  and  _341
REMARK  146  A    between atoms: _343  and  _345
REMARK  147  A    between atoms: _345  and  _346
REMARK  148  A    between atoms: _345  and  _348
REMARK  149  A    between atoms: _348  and  _349
REMARK  150  A    between atoms: _349  and  _350
REMARK  151  A    between atoms: _353  and  _355
REMARK  152  A    between atoms: _355  and  _356
REMARK  153  A    between atoms: _355  and  _358
REMARK  154  A    between atoms: _358  and  _359
REMARK  155  A    between atoms: _362  and  _364
REMARK  156  A    between atoms: _364  and  _365
REMARK  157  A    between atoms: _364  and  _367
REMARK  158  A    between atoms: _369  and  _371
REMARK  159  A    between atoms: _371  and  _372
REMARK  160  A    between atoms: _371  and  _374
REMARK  161  A    between atoms: _374  and  _375
REMARK  162  A    between atoms: _378  and  _380
REMARK  163  A    between atoms: _380  and  _381
REMARK  164  A    between atoms: _380  and  _383
REMARK  165  A    between atoms: _383  and  _384
REMARK  166  A    between atoms: _387  and  _389
REMARK  167  A    between atoms: _389  and  _390
REMARK  168  A    between atoms: _392  and  _394
REMARK  169  A    between atoms: _394  and  _395
REMARK  170  A    between atoms: _394  and  _397
REMARK  171  A    between atoms: _397  and  _398
REMARK  172  A    between atoms: _398  and  _399
REMARK  173  A    between atoms: _402  and  _404
REMARK  174  A    between atoms: _404  and  _405
REMARK  175  A    between atoms: _408  and  _410
REMARK  176  A    between atoms: _410  and  _411
REMARK  177  A    between atoms: _410  and  _413
REMARK  178  A    between atoms: _413  and  _414
REMARK  179  A    between atoms: _417  and  _419
REMARK  180  A    between atoms: _419  and  _420
REMARK  181  A    between atoms: _419  and  _422
REMARK  182  A    between atoms: _422  and  _423
REMARK  183  A    between atoms: _428  and  _429
REMARK  184  A    between atoms: _431  and  _433
REMARK  185  A    between atoms: _433  and  _434
REMARK  186  A    between atoms: _433  and  _436
REMARK  187  A    between atoms: _436  and  _437
REMARK  188  A    between atoms: _440  and  _442
REMARK  189  A    between atoms: _442  and  _443
REMARK  190  A    between atoms: _442  and  _445
REMARK  191  A    between atoms: _445  and  _446
REMARK  192  A    between atoms: _452  and  _454
REMARK  193  A    between atoms: _454  and  _455
REMARK  194  A    between atoms: _454  and  _457
REMARK  195  A    between atoms: _460  and  _462
REMARK  196  A    between atoms: _462  and  _463
REMARK  197  A    between atoms: _462  and  _465
REMARK  198  A    between atoms: _465  and  _466
REMARK  199  A    between atoms: _471  and  _473
REMARK  200  A    between atoms: _473  and  _474
REMARK  201  A    between atoms: _473  and  _476
REMARK  202  A    between atoms: _476  and  _477
REMARK  203  A    between atoms: _477  and  _478
REMARK  204  A    between atoms: _478  and  _479
REMARK  205  A    between atoms: _488  and  _490
REMARK  206  A    between atoms: _490  and  _491
REMARK  207  A    between atoms: _490  and  _493
REMARK  208  A    between atoms: _493  and  _494
REMARK  209  A    between atoms: _497  and  _499
REMARK  210  A    between atoms: _499  and  _500
REMARK  211  A    between atoms: _499  and  _502
REMARK  212  A    between atoms: _502  and  _503
REMARK  213  A    between atoms: _506  and  _508
REMARK  214  A    between atoms: _508  and  _509
REMARK  215  A    between atoms: _508  and  _511
REMARK  216  A    between atoms: _511  and  _512
REMARK  217  A    between atoms: _517  and  _519
REMARK  218  A    between atoms: _519  and  _520
REMARK  219  A    between atoms: _519  and  _522
REMARK  220  A    between atoms: _525  and  _527
REMARK  221  A    between atoms: _527  and  _528
REMARK  222  A    between atoms: _527  and  _530
REMARK  223  A    between atoms: _530  and  _531
REMARK  224  A    between atoms: _534  and  _536
REMARK  225  A    between atoms: _536  and  _537
REMARK  226  A    between atoms: _536  and  _539
REMARK  227  A    between atoms: _542  and  _544
REMARK  228  A    between atoms: _544  and  _545
REMARK  229  A    between atoms: _544  and  _547
REMARK  230  A    between atoms: _547  and  _548
REMARK  231  A    between atoms: _550  and  _552
REMARK  232  A    between atoms: _552  and  _553
REMARK  233  A    between atoms: _552  and  _555
REMARK  234  A    between atoms: _555  and  _556
REMARK  235  A    between atoms: _556  and  _557
REMARK  236  A    between atoms: _557  and  _558
REMARK  237  A    between atoms: _558  and  _559
REMARK  238  A    between atoms: _563  and  _565
REMARK  239  A    between atoms: _565  and  _566
REMARK  240  A    between atoms: _565  and  _568
REMARK  241  A    between atoms: _568  and  _569
REMARK  242  A    between atoms: _572  and  _574
REMARK  243  A    between atoms: _574  and  _575
REMARK  244  A    between atoms: _577  and  _579
REMARK  245  A    between atoms: _579  and  _580
REMARK  246  A    between atoms: _579  and  _582
REMARK  247  A    between atoms: _582  and  _583
REMARK  248  A    between atoms: _586  and  _588
REMARK  249  A    between atoms: _588  and  _589
REMARK  250  A    between atoms: _588  and  _591
REMARK  251  A    between atoms: _591  and  _592
REMARK  252  A    between atoms: _598  and  _600
REMARK  253  A    between atoms: _600  and  _601
REMARK  254  A    between atoms: _603  and  _605
REMARK  255  A    between atoms: _605  and  _606
REMARK  256  A    between atoms: _605  and  _608
REMARK  257  A    between atoms: _608  and  _609
REMARK  258  A    between atoms: _612  and  _614
REMARK  259  A    between atoms: _614  and  _615
REMARK  260  A    between atoms: _614  and  _617
REMARK  261  A    between atoms: _617  and  _618
REMARK  262  A    between atoms: _620  and  _622
REMARK  263  A    between atoms: _622  and  _623
REMARK  264  A    between atoms: _622  and  _625
REMARK  265  A    between atoms: _625  and  _626
REMARK  266  A    between atoms: _626  and  _627
REMARK  267  A    between atoms: _627  and  _628
REMARK  268  A    between atoms: _637  and  _639
REMARK  269  A    between atoms: _639  and  _640
REMARK  270  A    between atoms: _639  and  _642
REMARK  271  A    between atoms: _642  and  _643
REMARK  272  A    between atoms: _648  and  _649
REMARK  273  A    between atoms: _651  and  _653
REMARK  274  A    between atoms: _653  and  _654
REMARK  275  A    between atoms: _653  and  _656
REMARK  276  A    between atoms: _656  and  _657
REMARK  277  A    between atoms: _657  and  _658
REMARK  278  A    between atoms: _660  and  _662
REMARK  279  A    between atoms: _662  and  _663
REMARK  280  A    between atoms: _662  and  _665
REMARK  281  A    between atoms: _665  and  _666
REMARK                            x       y       z     vdW  Elec       q    Type
REMARK                         _______ _______ _______ _____ _____    ______ ____
ROOT
ATOM      1  O   HOH     1     -29.534 -27.753  11.620  0.00  0.00    +0.000 OA
ENDROOT
TORSDOF 0
REMARK  Name = ../refined-set-2016/4k9y/4k9y_pocket.pdb
REMARK  281 active torsions:
REMARK  status: ('A' for Active; 'I' for Inactive)
REMARK    1  A    between atoms: _1  and  _3
REMARK    2  A    between atoms: _3  and  _4
REMARK    3  A    between atoms: _3  and  _6
REMARK    4  A    between atoms: _6  and  _7
REMARK    5  A    between atoms: _7  and  _8
REMARK    6  A    between atoms: _8  and  _9
REMARK    7  A    between atoms: _18  and  _20
REMARK    8  A    between atoms: _20  and  _21
REMARK    9  A    between atoms: _20  and  _23
REMARK   10  A    between atoms: _23  and  _24
REMARK   11  A    between atoms: _27  and  _29
REMARK   12  A    between atoms: _29  and  _30
REMARK   13  A    between atoms: _32  and  _34
REMARK   14  A    between atoms: _34  and  _35
REMARK   15  A    between atoms: _34  and  _37
REMARK   16  A    between atoms: _37  and  _38
REMARK   17  A    between atoms: _38  and  _39
REMARK   18  A    between atoms: _42  and  _44
REMARK   19  A    between atoms: _44  and  _45
REMARK   20  A    between atoms: _44  and  _47
REMARK   21  A    between atoms: _47  and  _48
REMARK   22  A    between atoms: _54  and  _56
REMARK   23  A    between atoms: _56  and  _57
REMARK   24  A    between atoms: _56  and  _59
REMARK   25  A    between atoms: _62  and  _64
REMARK   26  A    between atoms: _64  and  _65
REMARK   27  A    between atoms: _64  and  _67
REMARK   28  A    between atoms: _67  and  _68
REMARK   29  A    between atoms: _73  and  _75
REMARK   30  A    between atoms: _75  and  _76
REMARK   31  A    between atoms: _75  and  _78
REMARK   32  A    between atoms: _78  and  _79
REMARK   33  A    between atoms: _79  and  _80
REMARK   34  A    between atoms: _85  and  _87
REMARK   35  A    between atoms: _87  and  _88
REMARK   36  A    between atoms: _91  and  _93
REMARK   37  A    between atoms: _93  and  _94
REMARK   38  A    between atoms: _93  and  _96
REMARK   39  A    between atoms: _99  and  _101
REMARK   40  A    between atoms: _101  and  _102
REMARK   41  A    between atoms: _105  and  _107
REMARK   42  A    between atoms: _107  and  _108
REMARK   43  A    between atoms: _107  and  _110
REMARK   44  A    between atoms: _110  and  _111
REMARK   45  A    between atoms: _114  and  _116
REMARK   46  A    between atoms: _116  and  _117
REMARK   47  A    between atoms: _116  and  _119
REMARK   48  A    between atoms: _119  and  _120
REMARK   49  A    between atoms: _120  and  _121
REMARK   50  A    between atoms: _121  and  _122
REMARK   51  A    between atoms: _122  and  _123
REMARK   52  A    between atoms: _127  and  _129
REMARK   53  A    between atoms: _129  and  _130
REMARK   54  A    between atoms: _129  and  _132
REMARK   55  A    between atoms: _132  and  _133
REMARK   56  A    between atoms: _133  and  _134
REMARK   57  A    between atoms: _134  and  _135
REMARK   58  A    between atoms: _135  and  _136
REMARK   59  A    between atoms: _140  and  _142
REMARK   60  A    between atoms: _142  and  _143
REMARK   61  A    between atoms: _142  and  _145
REMARK   62  A    between atoms: _145  and  _146
REMARK   63  A    between atoms: _152  and  _154
REMARK   64  A    between atoms: _154  and  _155
REMARK   65  A    between atoms: _154  and  _157
REMARK   66  A    between atoms: _157  and  _158
REMARK   67  A    between atoms: _161  and  _163
REMARK   68  A    between atoms: _163  and  _164
REMARK   69  A    between atoms: _163  and  _166
REMARK   70  A    between atoms: _166  and  _167
REMARK   71  A    between atoms: _167  and  _168
REMARK   72  A    between atoms: _173  and  _175
REMARK   73  A    between atoms: _175  and  _176
REMARK   74  A    between atoms: _175  and  _178
REMARK   75  A    between atoms: _178  and  _179
REMARK   76  A    between atoms: _179  and  _180
REMARK   77  A    between atoms: _183  and  _185
REMARK   78  A    between atoms: _185  and  _186
REMARK   79  A    between atoms: _189  and  _191
REMARK   80  A    between atoms: _191  and  _192
REMARK   81  A    between atoms: _191  and  _194
REMARK   82  A    between atoms: _194  and  _195
REMARK   83  A    between atoms: _198  and  _200
REMARK   84  A    between atoms: _200  and  _201
REMARK   85  A    between atoms: _200  and  _203
REMARK   86  A    between atoms: _203  and  _204
REMARK   87  A    between atoms: _207  and  _209
REMARK   88  A    between atoms: _209  and  _210
REMARK   89  A    between atoms: _209  and  _212
REMARK   90  A    between atoms: _212  and  _213
REMARK   91  A    between atoms: _213  and  _214
REMARK   92  A    between atoms: _216  and  _218
REMARK   93  A    between atoms: _218  and  _219
REMARK   94  A    between atoms: _218  and  _221
REMARK   95  A    between atoms: _221  and  _222
REMARK   96  A    between atoms: _222  and  _223
REMARK   97  A    between atoms: _223  and  _224
REMARK   98  A    between atoms: _233  and  _235
REMARK   99  A    between atoms: _235  and  _236
REMARK  100  A    between atoms: _235  and  _238
REMARK  101  A    between atoms: _238  and  _239
REMARK  102  A    between atoms: _239  and  _240
REMARK  103  A    between atoms: _245  and  _247
REMARK  104  A    between atoms: _247  and  _248
REMARK  105  A    between atoms: _247  and  _250
REMARK  106  A    between atoms: _250  and  _251
REMARK  107  A    between atoms: _257  and  _259
REMARK  108  A    between atoms: _259  and  _260
REMARK  109  A    between atoms: _259  and  _262
REMARK  110  A    between atoms: _262  and  _263
REMARK  111  A    between atoms: _266  and  _268
REMARK  112  A    between atoms: _268  and  _269
REMARK  113  A    between atoms: _268  and  _271
REMARK  114  A    between atoms: _271  and  _272
REMARK  115  A    between atoms: _277  and  _279
REMARK  116  A    between atoms: _279  and  _280
REMARK  117  A    between atoms: _279  and  _282
REMARK  118  A    between atoms: _282  and  _283
REMARK  119  A    between atoms: _286  and  _288
REMARK  120  A    between atoms: _288  and  _289
REMARK  121  A    between atoms: _288  and  _291
REMARK  122  A    between atoms: _294  and  _296
REMARK  123  A    between atoms: _296  and  _297
REMARK  124  A    between atoms: _296  and  _299
REMARK  125  A    between atoms: _299  and  _300
REMARK  126  A    between atoms: _300  and  _301
REMARK  127  A    between atoms: _301  and  _302
REMARK  128  A    between atoms: _302  and  _303
REMARK  129  A    between atoms: _307  and  _309
REMARK  130  A    between atoms: _309  and  _310
REMARK  131  A    between atoms: _309  and  _312
REMARK  132  A    between atoms: _312  and  _313
REMARK  133  A    between atoms: _316  and  _318
REMARK  134  A    between atoms: _318  and  _319
REMARK  135  A    between atoms: _318  and  _321
REMARK  136  A    between atoms: _321  and  _322
REMARK  137  A    between atoms: _325  and  _327
REMARK  138  A    between atoms: _327  and  _328
REMARK  139  A    between atoms: _327  and  _330
REMARK  140  A    between atoms: _330  and  _331
REMARK  141  A    between atoms: _334  and  _336
REMARK  142  A    between atoms: _336  and  _337
REMARK  143  A    between atoms: _336  and  _339
REMARK  144  A    between atoms: _339  and  _340
REMARK  145  A    between atoms: _340  and  _341
REMARK  146  A    between atoms: _343  and  _345
REMARK  147  A    between atoms: _345  and  _346
REMARK  148  A    between atoms: _345  and  _348
REMARK  149  A    between atoms: _348  and  _349
REMARK  150  A    between atoms: _349  and  _350
REMARK  151  A    between atoms: _353  and  _355
REMARK  152  A    between atoms: _355  and  _356
REMARK  153  A    between atoms: _355  and  _358
REMARK  154  A    between atoms: _358  and  _359
REMARK  155  A    between atoms: _362  and  _364
REMARK  156  A    between atoms: _364  and  _365
REMARK  157  A    between atoms: _364  and  _367
REMARK  158  A    between atoms: _369  and  _371
REMARK  159  A    between atoms: _371  and  _372
REMARK  160  A    between atoms: _371  and  _374
REMARK  161  A    between atoms: _374  and  _375
REMARK  162  A    between atoms: _378  and  _380
REMARK  163  A    between atoms: _380  and  _381
REMARK  164  A    between atoms: _380  and  _383
REMARK  165  A    between atoms: _383  and  _384
REMARK  166  A    between atoms: _387  and  _389
REMARK  167  A    between atoms: _389  and  _390
REMARK  168  A    between atoms: _392  and  _394
REMARK  169  A    between atoms: _394  and  _395
REMARK  170  A    between atoms: _394  and  _397
REMARK  171  A    between atoms: _397  and  _398
REMARK  172  A    between atoms: _398  and  _399
REMARK  173  A    between atoms: _402  and  _404
REMARK  174  A    between atoms: _404  and  _405
REMARK  175  A    between atoms: _408  and  _410
REMARK  176  A    between atoms: _410  and  _411
REMARK  177  A    between atoms: _410  and  _413
REMARK  178  A    between atoms: _413  and  _414
REMARK  179  A    between atoms: _417  and  _419
REMARK  180  A    between atoms: _419  and  _420
REMARK  181  A    between atoms: _419  and  _422
REMARK  182  A    between atoms: _422  and  _423
REMARK  183  A    between atoms: _428  and  _429
REMARK  184  A    between atoms: _431  and  _433
REMARK  185  A    between atoms: _433  and  _434
REMARK  186  A    between atoms: _433  and  _436
REMARK  187  A    between atoms: _436  and  _437
REMARK  188  A    between atoms: _440  and  _442
REMARK  189  A    between atoms: _442  and  _443
REMARK  190  A    between atoms: _442  and  _445
REMARK  191  A    between atoms: _445  and  _446
REMARK  192  A    between atoms: _452  and  _454
REMARK  193  A    between atoms: _454  and  _455
REMARK  194  A    between atoms: _454  and  _457
REMARK  195  A    between atoms: _460  and  _462
REMARK  196  A    between atoms: _462  and  _463
REMARK  197  A    between atoms: _462  and  _465
REMARK  198  A    between atoms: _465  and  _466
REMARK  199  A    between atoms: _471  and  _473
REMARK  200  A    between atoms: _473  and  _474
REMARK  201  A    between atoms: _473  and  _476
REMARK  202  A    between atoms: _476  and  _477
REMARK  203  A    between atoms: _477  and  _478
REMARK  204  A    between atoms: _478  and  _479
REMARK  205  A    between atoms: _488  and  _490
REMARK  206  A    between atoms: _490  and  _491
REMARK  207  A    between atoms: _490  and  _493
REMARK  208  A    between atoms: _493  and  _494
REMARK  209  A    between atoms: _497  and  _499
REMARK  210  A    between atoms: _499  and  _500
REMARK  211  A    between atoms: _499  and  _502
REMARK  212  A    between atoms: _502  and  _503
REMARK  213  A    between atoms: _506  and  _508
REMARK  214  A    between atoms: _508  and  _509
REMARK  215  A    between atoms: _508  and  _511
REMARK  216  A    between atoms: _511  and  _512
REMARK  217  A    between atoms: _517  and  _519
REMARK  218  A    between atoms: _519  and  _520
REMARK  219  A    between atoms: _519  and  _522
REMARK  220  A    between atoms: _525  and  _527
REMARK  221  A    between atoms: _527  and  _528
REMARK  222  A    between atoms: _527  and  _530
REMARK  223  A    between atoms: _530  and  _531
REMARK  224  A    between atoms: _534  and  _536
REMARK  225  A    between atoms: _536  and  _537
REMARK  226  A    between atoms: _536  and  _539
REMARK  227  A    between atoms: _542  and  _544
REMARK  228  A    between atoms: _544  and  _545
REMARK  229  A    between atoms: _544  and  _547
REMARK  230  A    between atoms: _547  and  _548
REMARK  231  A    between atoms: _550  and  _552
REMARK  232  A    between atoms: _552  and  _553
REMARK  233  A    between atoms: _552  and  _555
REMARK  234  A    between atoms: _555  and  _556
REMARK  235  A    between atoms: _556  and  _557
REMARK  236  A    between atoms: _557  and  _558
REMARK  237  A    between atoms: _558  and  _559
REMARK  238  A    between atoms: _563  and  _565
REMARK  239  A    between atoms: _565  and  _566
REMARK  240  A    between atoms: _565  and  _568
REMARK  241  A    between atoms: _568  and  _569
REMARK  242  A    between atoms: _572  and  _574
REMARK  243  A    between atoms: _574  and  _575
REMARK  244  A    between atoms: _577  and  _579
REMARK  245  A    between atoms: _579  and  _580
REMARK  246  A    between atoms: _579  and  _582
REMARK  247  A    between atoms: _582  and  _583
REMARK  248  A    between atoms: _586  and  _588
REMARK  249  A    between atoms: _588  and  _589
REMARK  250  A    between atoms: _588  and  _591
REMARK  251  A    between atoms: _591  and  _592
REMARK  252  A    between atoms: _598  and  _600
REMARK  253  A    between atoms: _600  and  _601
REMARK  254  A    between atoms: _603  and  _605
REMARK  255  A    between atoms: _605  and  _606
REMARK  256  A    between atoms: _605  and  _608
REMARK  257  A    between atoms: _608  and  _609
REMARK  258  A    between atoms: _612  and  _614
REMARK  259  A    between atoms: _614  and  _615
REMARK  260  A    between atoms: _614  and  _617
REMARK  261  A    between atoms: _617  and  _618
REMARK  262  A    between atoms: _620  and  _622
REMARK  263  A    between atoms: _622  and  _623
REMARK  264  A    between atoms: _622  and  _625
REMARK  265  A    between atoms: _625  and  _626
REMARK  266  A    between atoms: _626  and  _627
REMARK  267  A    between atoms: _627  and  _628
REMARK  268  A    between atoms: _637  and  _639
REMARK  269  A    between atoms: _639  and  _640
REMARK  270  A    between atoms: _639  and  _642
REMARK  271  A    between atoms: _642  and  _643
REMARK  272  A    between atoms: _648  and  _649
REMARK  273  A    between atoms: _651  and  _653
REMARK  274  A    between atoms: _653  and  _654
REMARK  275  A    between atoms: _653  and  _656
REMARK  276  A    between atoms: _656  and  _657
REMARK  277  A    between atoms: _657  and  _658
REMARK  278  A    between atoms: _660  and  _662
REMARK  279  A    between atoms: _662  and  _663
REMARK  280  A    between atoms: _662  and  _665
REMARK  281  A    between atoms: _665  and  _666
REMARK                            x       y       z     vdW  Elec       q    Type
REMARK                         _______ _______ _______ _____ _____    ______ ____
ROOT
ATOM      1  O   HOH     1     -25.180 -28.563  11.178  0.00  0.00    +0.000 OA
ENDROOT
TORSDOF 0
