REMARK  Name = ../refined-set-2016/2qw1/2qw1_pocket.pdb
REMARK  108 active torsions:
REMARK  status: ('A' for Active; 'I' for Inactive)
REMARK    1  A    between atoms: _1  and  _3
REMARK    2  A    between atoms: _3  and  _4
REMARK    3  A    between atoms: _3  and  _6
REMARK    4  A    between atoms: _6  and  _7
REMARK    5  A    between atoms: _12  and  _13
REMARK    6  A    between atoms: _15  and  _17
REMARK    7  A    between atoms: _17  and  _18
REMARK    8  A    between atoms: _17  and  _20
REMARK    9  A    between atoms: _20  and  _21
REMARK   10  A    between atoms: _21  and  _22
REMARK   11  A    between atoms: _22  and  _23
REMARK   12  A    between atoms: _23  and  _24
REMARK   13  A    between atoms: _28  and  _30
REMARK   14  A    between atoms: _30  and  _31
REMARK   15  A    between atoms: _30  and  _33
REMARK   16  A    between atoms: _33  and  _34
REMARK   17  A    between atoms: _37  and  _39
REMARK   18  A    between atoms: _39  and  _40
REMARK   19  A    between atoms: _39  and  _42
REMARK   20  A    between atoms: _42  and  _43
REMARK   21  A    between atoms: _46  and  _48
REMARK   22  A    between atoms: _48  and  _49
REMARK   23  A    between atoms: _48  and  _51
REMARK   24  A    between atoms: _51  and  _52
REMARK   25  A    between atoms: _57  and  _59
REMARK   26  A    between atoms: _59  and  _60
REMARK   27  A    between atoms: _59  and  _62
REMARK   28  A    between atoms: _62  and  _63
REMARK   29  A    between atoms: _69  and  _71
REMARK   30  A    between atoms: _71  and  _72
REMARK   31  A    between atoms: _71  and  _74
REMARK   32  A    between atoms: _74  and  _75
REMARK   33  A    between atoms: _77  and  _79
REMARK   34  A    between atoms: _79  and  _80
REMARK   35  A    between atoms: _82  and  _84
REMARK   36  A    between atoms: _84  and  _85
REMARK   37  A    between atoms: _84  and  _87
REMARK   38  A    between atoms: _87  and  _88
REMARK   39  A    between atoms: _88  and  _89
REMARK   40  A    between atoms: _92  and  _94
REMARK   41  A    between atoms: _94  and  _95
REMARK   42  A    between atoms: _94  and  _97
REMARK   43  A    between atoms: _97  and  _98
REMARK   44  A    between atoms: _104  and  _105
REMARK   45  A    between atoms: _110  and  _112
REMARK   46  A    between atoms: _112  and  _113
REMARK   47  A    between atoms: _112  and  _115
REMARK   48  A    between atoms: _115  and  _116
REMARK   49  A    between atoms: _119  and  _121
REMARK   50  A    between atoms: _121  and  _122
REMARK   51  A    between atoms: _125  and  _127
REMARK   52  A    between atoms: _127  and  _128
REMARK   53  A    between atoms: _127  and  _130
REMARK   54  A    between atoms: _130  and  _131
REMARK   55  A    between atoms: _131  and  _132
REMARK   56  A    between atoms: _132  and  _133
REMARK   57  A    between atoms: _142  and  _144
REMARK   58  A    between atoms: _144  and  _145
REMARK   59  A    between atoms: _144  and  _147
REMARK   60  A    between atoms: _147  and  _148
REMARK   61  A    between atoms: _148  and  _149
REMARK   62  A    between atoms: _151  and  _153
REMARK   63  A    between atoms: _153  and  _154
REMARK   64  A    between atoms: _153  and  _156
REMARK   65  A    between atoms: _156  and  _157
REMARK   66  A    between atoms: _167  and  _169
REMARK   67  A    between atoms: _169  and  _170
REMARK   68  A    between atoms: _169  and  _172
REMARK   69  A    between atoms: _172  and  _173
REMARK   70  A    between atoms: _176  and  _178
REMARK   71  A    between atoms: _178  and  _179
REMARK   72  A    between atoms: _178  and  _181
REMARK   73  A    between atoms: _181  and  _182
REMARK   74  A    between atoms: _187  and  _189
REMARK   75  A    between atoms: _189  and  _190
REMARK   76  A    between atoms: _189  and  _192
REMARK   77  A    between atoms: _192  and  _193
REMARK   78  A    between atoms: _198  and  _200
REMARK   79  A    between atoms: _200  and  _201
REMARK   80  A    between atoms: _200  and  _203
REMARK   81  A    between atoms: _203  and  _204
REMARK   82  A    between atoms: _207  and  _209
REMARK   83  A    between atoms: _209  and  _210
REMARK   84  A    between atoms: _213  and  _215
REMARK   85  A    between atoms: _215  and  _216
REMARK   86  A    between atoms: _215  and  _218
REMARK   87  A    between atoms: _218  and  _219
REMARK   88  A    between atoms: _219  and  _220
REMARK   89  A    between atoms: _222  and  _224
REMARK   90  A    between atoms: _224  and  _225
REMARK   91  A    between atoms: _224  and  _227
REMARK   92  A    between atoms: _230  and  _232
REMARK   93  A    between atoms: _232  and  _233
REMARK   94  A    between atoms: _232  and  _235
REMARK   95  A    between atoms: _235  and  _236
REMARK   96  A    between atoms: _239  and  _241
REMARK   97  A    between atoms: _241  and  _242
REMARK   98  A    between atoms: _241  and  _244
REMARK   99  A    between atoms: _244  and  _245
REMARK  100  A    between atoms: _248  and  _250
REMARK  101  A    between atoms: _250  and  _251
REMARK  102  A    between atoms: _250  and  _253
REMARK  103  A    between atoms: _253  and  _254
REMARK  104  A    between atoms: _259  and  _261
REMARK  105  A    between atoms: _261  and  _262
REMARK  106  A    between atoms: _261  and  _264
REMARK  107  A    between atoms: _264  and  _265
REMARK  108  A    between atoms: _270  and  _271
REMARK                            x       y       z     vdW  Elec       q    Type
REMARK                         _______ _______ _______ _____ _____    ______ ____
ROOT
ATOM      1  C   TYR A   1      -6.074  10.378 -28.405  0.00  0.00    +0.239 C 
ATOM      2  N   LYS A   2      -5.625  11.607 -28.149  0.00  0.00    -0.298 N 
ATOM      3  H   LYS A   2      -4.887  11.732 -27.427  0.00  0.00    +0.150 HD
ATOM      4  O   TYR A   1      -7.033  10.152 -29.123  0.00  0.00    -0.274 OA
ENDROOT
BRANCH   1   5
ATOM      5  CA  TYR A   1      -5.293   9.211 -27.777  0.00  0.00    +0.149 C 
BRANCH   5   6
ATOM      6  N   TYR A   1      -3.849   9.441 -27.793  0.00  0.00    -0.238 NA
ATOM      7  H   TYR A   1      -3.318   9.503 -26.901  0.00  0.00    +0.142 HD
ENDBRANCH   5   6
BRANCH   5   8
ATOM      8  CB  TYR A   1      -5.786   8.828 -26.381  0.00  0.00    +0.053 C 
BRANCH   8   9
ATOM      9  CG  TYR A   1      -6.157   9.982 -25.463  0.00  0.00    -0.020 A 
ATOM     10  CD2 TYR A   1      -5.181  10.821 -24.925  0.00  0.00    -0.001 A 
ATOM     11  CE2 TYR A   1      -5.531  11.870 -24.057  0.00  0.00    +0.036 A 
ATOM     12  CZ  TYR A   1      -6.870  12.080 -23.761  0.00  0.00    +0.134 A 
ATOM     13  CE1 TYR A   1      -7.855  11.267 -24.291  0.00  0.00    +0.036 A 
ATOM     14  CD1 TYR A   1      -7.495  10.217 -25.135  0.00  0.00    -0.001 A 
BRANCH  12  15
ATOM     15  OH  TYR A   1      -7.235  13.108 -22.918  0.00  0.00    -0.506 OA
ATOM     16  HH  TYR A   1      -6.935  13.970 -23.302  0.00  0.00    +0.292 HD
ENDBRANCH  12  15
ENDBRANCH   8   9
ENDBRANCH   5   8
ENDBRANCH   1   5
BRANCH   2  17
ATOM     17  CA  LYS A   2      -6.133  12.783 -28.847  0.00  0.00    +0.137 C 
BRANCH  17  18
ATOM     18  C   LYS A   2      -5.102  13.892 -28.713  0.00  0.00    +0.227 C 
ATOM     19  O   LYS A   2      -4.460  14.035 -27.661  0.00  0.00    -0.286 OA
ENDBRANCH  17  18
BRANCH  17  20
ATOM     20  CB  LYS A   2      -7.514  13.220 -28.315  0.00  0.00    +0.028 C 
BRANCH  20  21
ATOM     21  CG  LYS A   2      -7.522  13.870 -26.915  0.00  0.00    -0.000 C 
BRANCH  21  22
ATOM     22  CD  LYS A   2      -8.944  14.103 -26.411  0.00  0.00    -0.024 C 
BRANCH  22  23
ATOM     23  CE  LYS A   2      -8.955  15.057 -25.211  0.00  0.00    -0.086 C 
BRANCH  23  24
ATOM     24  NZ  LYS A   2     -10.349  15.304 -24.729  0.00  0.00    +0.380 N 
ATOM     25  HZ1 LYS A   2     -10.324  15.953 -23.917  0.00  0.00    -0.089 HD
ATOM     26  HZ2 LYS A   2     -10.780  14.402 -24.441  0.00  0.00    -0.089 HD
ATOM     27  HZ3 LYS A   2     -10.910  15.728 -25.496  0.00  0.00    -0.089 HD
ENDBRANCH  23  24
ENDBRANCH  22  23
ENDBRANCH  21  22
ENDBRANCH  20  21
ENDBRANCH  17  20
ENDBRANCH   2  17
TORSDOF 12
REMARK  Name = ../refined-set-2016/2qw1/2qw1_pocket.pdb
REMARK  108 active torsions:
REMARK  status: ('A' for Active; 'I' for Inactive)
REMARK    1  A    between atoms: _1  and  _3
REMARK    2  A    between atoms: _3  and  _4
REMARK    3  A    between atoms: _3  and  _6
REMARK    4  A    between atoms: _6  and  _7
REMARK    5  A    between atoms: _12  and  _13
REMARK    6  A    between atoms: _15  and  _17
REMARK    7  A    between atoms: _17  and  _18
REMARK    8  A    between atoms: _17  and  _20
REMARK    9  A    between atoms: _20  and  _21
REMARK   10  A    between atoms: _21  and  _22
REMARK   11  A    between atoms: _22  and  _23
REMARK   12  A    between atoms: _23  and  _24
REMARK   13  A    between atoms: _28  and  _30
REMARK   14  A    between atoms: _30  and  _31
REMARK   15  A    between atoms: _30  and  _33
REMARK   16  A    between atoms: _33  and  _34
REMARK   17  A    between atoms: _37  and  _39
REMARK   18  A    between atoms: _39  and  _40
REMARK   19  A    between atoms: _39  and  _42
REMARK   20  A    between atoms: _42  and  _43
REMARK   21  A    between atoms: _46  and  _48
REMARK   22  A    between atoms: _48  and  _49
REMARK   23  A    between atoms: _48  and  _51
REMARK   24  A    between atoms: _51  and  _52
REMARK   25  A    between atoms: _57  and  _59
REMARK   26  A    between atoms: _59  and  _60
REMARK   27  A    between atoms: _59  and  _62
REMARK   28  A    between atoms: _62  and  _63
REMARK   29  A    between atoms: _69  and  _71
REMARK   30  A    between atoms: _71  and  _72
REMARK   31  A    between atoms: _71  and  _74
REMARK   32  A    between atoms: _74  and  _75
REMARK   33  A    between atoms: _77  and  _79
REMARK   34  A    between atoms: _79  and  _80
REMARK   35  A    between atoms: _82  and  _84
REMARK   36  A    between atoms: _84  and  _85
REMARK   37  A    between atoms: _84  and  _87
REMARK   38  A    between atoms: _87  and  _88
REMARK   39  A    between atoms: _88  and  _89
REMARK   40  A    between atoms: _92  and  _94
REMARK   41  A    between atoms: _94  and  _95
REMARK   42  A    between atoms: _94  and  _97
REMARK   43  A    between atoms: _97  and  _98
REMARK   44  A    between atoms: _104  and  _105
REMARK   45  A    between atoms: _110  and  _112
REMARK   46  A    between atoms: _112  and  _113
REMARK   47  A    between atoms: _112  and  _115
REMARK   48  A    between atoms: _115  and  _116
REMARK   49  A    between atoms: _119  and  _121
REMARK   50  A    between atoms: _121  and  _122
REMARK   51  A    between atoms: _125  and  _127
REMARK   52  A    between atoms: _127  and  _128
REMARK   53  A    between atoms: _127  and  _130
REMARK   54  A    between atoms: _130  and  _131
REMARK   55  A    between atoms: _131  and  _132
REMARK   56  A    between atoms: _132  and  _133
REMARK   57  A    between atoms: _142  and  _144
REMARK   58  A    between atoms: _144  and  _145
REMARK   59  A    between atoms: _144  and  _147
REMARK   60  A    between atoms: _147  and  _148
REMARK   61  A    between atoms: _148  and  _149
REMARK   62  A    between atoms: _151  and  _153
REMARK   63  A    between atoms: _153  and  _154
REMARK   64  A    between atoms: _153  and  _156
REMARK   65  A    between atoms: _156  and  _157
REMARK   66  A    between atoms: _167  and  _169
REMARK   67  A    between atoms: _169  and  _170
REMARK   68  A    between atoms: _169  and  _172
REMARK   69  A    between atoms: _172  and  _173
REMARK   70  A    between atoms: _176  and  _178
REMARK   71  A    between atoms: _178  and  _179
REMARK   72  A    between atoms: _178  and  _181
REMARK   73  A    between atoms: _181  and  _182
REMARK   74  A    between atoms: _187  and  _189
REMARK   75  A    between atoms: _189  and  _190
REMARK   76  A    between atoms: _189  and  _192
REMARK   77  A    between atoms: _192  and  _193
REMARK   78  A    between atoms: _198  and  _200
REMARK   79  A    between atoms: _200  and  _201
REMARK   80  A    between atoms: _200  and  _203
REMARK   81  A    between atoms: _203  and  _204
REMARK   82  A    between atoms: _207  and  _209
REMARK   83  A    between atoms: _209  and  _210
REMARK   84  A    between atoms: _213  and  _215
REMARK   85  A    between atoms: _215  and  _216
REMARK   86  A    between atoms: _215  and  _218
REMARK   87  A    between atoms: _218  and  _219
REMARK   88  A    between atoms: _219  and  _220
REMARK   89  A    between atoms: _222  and  _224
REMARK   90  A    between atoms: _224  and  _225
REMARK   91  A    between atoms: _224  and  _227
REMARK   92  A    between atoms: _230  and  _232
REMARK   93  A    between atoms: _232  and  _233
REMARK   94  A    between atoms: _232  and  _235
REMARK   95  A    between atoms: _235  and  _236
REMARK   96  A    between atoms: _239  and  _241
REMARK   97  A    between atoms: _241  and  _242
REMARK   98  A    between atoms: _241  and  _244
REMARK   99  A    between atoms: _244  and  _245
REMARK  100  A    between atoms: _248  and  _250
REMARK  101  A    between atoms: _250  and  _251
REMARK  102  A    between atoms: _250  and  _253
REMARK  103  A    between atoms: _253  and  _254
REMARK  104  A    between atoms: _259  and  _261
REMARK  105  A    between atoms: _261  and  _262
REMARK  106  A    between atoms: _261  and  _264
REMARK  107  A    between atoms: _264  and  _265
REMARK  108  A    between atoms: _270  and  _271
REMARK                            x       y       z     vdW  Elec       q    Type
REMARK                         _______ _______ _______ _____ _____    ______ ____
ROOT
ATOM      1  CA  ASN A   3      -2.371  19.384 -22.950  0.00  0.00    +0.158 C 
ENDROOT
BRANCH   1   3
ATOM      2  C   ASP A   2      -3.615  17.647 -24.151  0.00  0.00    +0.241 C 
ATOM      3  N   ASN A   3      -3.607  18.638 -23.260  0.00  0.00    -0.297 N 
ATOM      4  H   ASN A   3      -4.490  18.891 -22.773  0.00  0.00    +0.150 HD
ATOM      5  O   ASP A   2      -2.604  17.281 -24.731  0.00  0.00    -0.273 OA
BRANCH   2   6
ATOM      6  CA  ASP A   2      -4.950  16.972 -24.453  0.00  0.00    +0.160 C 
BRANCH   6   9
ATOM      7  C   ASP A   1      -6.018  18.104 -26.349  0.00  0.00    +0.239 C 
ATOM      8  O   ASP A   1      -6.662  18.862 -25.626  0.00  0.00    -0.274 OA
ATOM      9  N   ASP A   2      -5.223  17.152 -25.866  0.00  0.00    -0.297 N 
ATOM     10  H   ASP A   2      -4.772  16.501 -26.540  0.00  0.00    +0.150 HD
BRANCH   7  11
ATOM     11  CA  ASP A   1      -6.061  18.235 -27.892  0.00  0.00    +0.156 C 
BRANCH  11  12
ATOM     12  N   ASP A   1      -5.611  17.064 -28.668  0.00  0.00    -0.238 NA
ATOM     13  H   ASP A   1      -6.295  16.336 -28.957  0.00  0.00    +0.142 HD
ENDBRANCH  11  12
BRANCH  11  14
ATOM     14  CB  ASP A   1      -7.398  18.805 -28.414  0.00  0.00    +0.140 C 
BRANCH  14  15
ATOM     15  CG  ASP A   1      -8.521  17.788 -28.449  0.00  0.00    +0.367 C 
ATOM     16  OD2 ASP A   1      -8.276  16.561 -28.369  0.00  0.00    -0.246 OA
ATOM     17  OD1 ASP A   1      -9.680  18.232 -28.597  0.00  0.00    -0.246 OA
ENDBRANCH  14  15
ENDBRANCH  11  14
ENDBRANCH   7  11
ENDBRANCH   6   9
BRANCH   6  18
ATOM     18  CB  ASP A   2      -4.880  15.467 -24.162  0.00  0.00    +0.143 C 
BRANCH  18  19
ATOM     19  CG  ASP A   2      -4.727  15.151 -22.690  0.00  0.00    +0.367 C 
ATOM     20  OD2 ASP A   2      -5.704  14.665 -22.093  0.00  0.00    -0.246 OA
ATOM     21  OD1 ASP A   2      -3.639  15.336 -22.129  0.00  0.00    -0.246 OA
ENDBRANCH  18  19
ENDBRANCH   6  18
ENDBRANCH   2   6
ENDBRANCH   1   3
BRANCH   1  22
ATOM     22  C   ASN A   3      -1.215  18.522 -22.449  0.00  0.00    +0.241 C 
ATOM     23  N   PHE A   4      -1.491  17.675 -21.462  0.00  0.00    -0.298 N 
ATOM     24  H   PHE A   4      -2.464  17.609 -21.100  0.00  0.00    +0.150 HD
ATOM     25  O   ASN A   3      -0.090  18.642 -22.937  0.00  0.00    -0.273 OA
BRANCH  23  26
ATOM     26  CA  PHE A   4      -0.454  16.842 -20.884  0.00  0.00    +0.141 C 
BRANCH  26  27
ATOM     27  C   PHE A   4       0.092  15.916 -21.973  0.00  0.00    +0.227 C 
ATOM     28  O   PHE A   4       1.301  15.848 -22.164  0.00  0.00    -0.286 OA
ENDBRANCH  26  27
BRANCH  26  29
ATOM     29  CB  PHE A   4      -0.947  16.022 -19.693  0.00  0.00    +0.054 C 
BRANCH  29  30
ATOM     30  CG  PHE A   4       0.100  15.112 -19.140  0.00  0.00    -0.020 A 
ATOM     31  CD2 PHE A   4       1.134  15.619 -18.361  0.00  0.00    -0.004 A 
ATOM     32  CE2 PHE A   4       2.111  14.785 -17.859  0.00  0.00    -0.000 A 
ATOM     33  CZ  PHE A   4       2.074  13.405 -18.140  0.00  0.00    -0.000 A 
ATOM     34  CE1 PHE A   4       1.046  12.898 -18.932  0.00  0.00    -0.000 A 
ATOM     35  CD1 PHE A   4       0.079  13.748 -19.430  0.00  0.00    -0.004 A 
ENDBRANCH  29  30
ENDBRANCH  26  29
ENDBRANCH  23  26
ENDBRANCH   1  22
BRANCH   1  36
ATOM     36  CB  ASN A   3      -2.627  20.497 -21.915  0.00  0.00    +0.114 C 
BRANCH  36  37
ATOM     37  CG  ASN A   3      -3.639  21.533 -22.392  0.00  0.00    +0.222 C 
ATOM     38  ND2 ASN A   3      -3.951  22.503 -21.519  0.00  0.00    -0.329 N 
ATOM     39 HD21 ASN A   3      -3.510  22.517 -20.577  0.00  0.00    +0.145 HD
ATOM     40 HD22 ASN A   3      -4.634  23.241 -21.784  0.00  0.00    +0.145 HD
ATOM     41  OD1 ASN A   3      -4.133  21.469 -23.522  0.00  0.00    -0.275 OA
ENDBRANCH  36  37
ENDBRANCH   1  36
TORSDOF 16
REMARK  Name = ../refined-set-2016/2qw1/2qw1_pocket.pdb
REMARK  108 active torsions:
REMARK  status: ('A' for Active; 'I' for Inactive)
REMARK    1  A    between atoms: _1  and  _3
REMARK    2  A    between atoms: _3  and  _4
REMARK    3  A    between atoms: _3  and  _6
REMARK    4  A    between atoms: _6  and  _7
REMARK    5  A    between atoms: _12  and  _13
REMARK    6  A    between atoms: _15  and  _17
REMARK    7  A    between atoms: _17  and  _18
REMARK    8  A    between atoms: _17  and  _20
REMARK    9  A    between atoms: _20  and  _21
REMARK   10  A    between atoms: _21  and  _22
REMARK   11  A    between atoms: _22  and  _23
REMARK   12  A    between atoms: _23  and  _24
REMARK   13  A    between atoms: _28  and  _30
REMARK   14  A    between atoms: _30  and  _31
REMARK   15  A    between atoms: _30  and  _33
REMARK   16  A    between atoms: _33  and  _34
REMARK   17  A    between atoms: _37  and  _39
REMARK   18  A    between atoms: _39  and  _40
REMARK   19  A    between atoms: _39  and  _42
REMARK   20  A    between atoms: _42  and  _43
REMARK   21  A    between atoms: _46  and  _48
REMARK   22  A    between atoms: _48  and  _49
REMARK   23  A    between atoms: _48  and  _51
REMARK   24  A    between atoms: _51  and  _52
REMARK   25  A    between atoms: _57  and  _59
REMARK   26  A    between atoms: _59  and  _60
REMARK   27  A    between atoms: _59  and  _62
REMARK   28  A    between atoms: _62  and  _63
REMARK   29  A    between atoms: _69  and  _71
REMARK   30  A    between atoms: _71  and  _72
REMARK   31  A    between atoms: _71  and  _74
REMARK   32  A    between atoms: _74  and  _75
REMARK   33  A    between atoms: _77  and  _79
REMARK   34  A    between atoms: _79  and  _80
REMARK   35  A    between atoms: _82  and  _84
REMARK   36  A    between atoms: _84  and  _85
REMARK   37  A    between atoms: _84  and  _87
REMARK   38  A    between atoms: _87  and  _88
REMARK   39  A    between atoms: _88  and  _89
REMARK   40  A    between atoms: _92  and  _94
REMARK   41  A    between atoms: _94  and  _95
REMARK   42  A    between atoms: _94  and  _97
REMARK   43  A    between atoms: _97  and  _98
REMARK   44  A    between atoms: _104  and  _105
REMARK   45  A    between atoms: _110  and  _112
REMARK   46  A    between atoms: _112  and  _113
REMARK   47  A    between atoms: _112  and  _115
REMARK   48  A    between atoms: _115  and  _116
REMARK   49  A    between atoms: _119  and  _121
REMARK   50  A    between atoms: _121  and  _122
REMARK   51  A    between atoms: _125  and  _127
REMARK   52  A    between atoms: _127  and  _128
REMARK   53  A    between atoms: _127  and  _130
REMARK   54  A    between atoms: _130  and  _131
REMARK   55  A    between atoms: _131  and  _132
REMARK   56  A    between atoms: _132  and  _133
REMARK   57  A    between atoms: _142  and  _144
REMARK   58  A    between atoms: _144  and  _145
REMARK   59  A    between atoms: _144  and  _147
REMARK   60  A    between atoms: _147  and  _148
REMARK   61  A    between atoms: _148  and  _149
REMARK   62  A    between atoms: _151  and  _153
REMARK   63  A    between atoms: _153  and  _154
REMARK   64  A    between atoms: _153  and  _156
REMARK   65  A    between atoms: _156  and  _157
REMARK   66  A    between atoms: _167  and  _169
REMARK   67  A    between atoms: _169  and  _170
REMARK   68  A    between atoms: _169  and  _172
REMARK   69  A    between atoms: _172  and  _173
REMARK   70  A    between atoms: _176  and  _178
REMARK   71  A    between atoms: _178  and  _179
REMARK   72  A    between atoms: _178  and  _181
REMARK   73  A    between atoms: _181  and  _182
REMARK   74  A    between atoms: _187  and  _189
REMARK   75  A    between atoms: _189  and  _190
REMARK   76  A    between atoms: _189  and  _192
REMARK   77  A    between atoms: _192  and  _193
REMARK   78  A    between atoms: _198  and  _200
REMARK   79  A    between atoms: _200  and  _201
REMARK   80  A    between atoms: _200  and  _203
REMARK   81  A    between atoms: _203  and  _204
REMARK   82  A    between atoms: _207  and  _209
REMARK   83  A    between atoms: _209  and  _210
REMARK   84  A    between atoms: _213  and  _215
REMARK   85  A    between atoms: _215  and  _216
REMARK   86  A    between atoms: _215  and  _218
REMARK   87  A    between atoms: _218  and  _219
REMARK   88  A    between atoms: _219  and  _220
REMARK   89  A    between atoms: _222  and  _224
REMARK   90  A    between atoms: _224  and  _225
REMARK   91  A    between atoms: _224  and  _227
REMARK   92  A    between atoms: _230  and  _232
REMARK   93  A    between atoms: _232  and  _233
REMARK   94  A    between atoms: _232  and  _235
REMARK   95  A    between atoms: _235  and  _236
REMARK   96  A    between atoms: _239  and  _241
REMARK   97  A    between atoms: _241  and  _242
REMARK   98  A    between atoms: _241  and  _244
REMARK   99  A    between atoms: _244  and  _245
REMARK  100  A    between atoms: _248  and  _250
REMARK  101  A    between atoms: _250  and  _251
REMARK  102  A    between atoms: _250  and  _253
REMARK  103  A    between atoms: _253  and  _254
REMARK  104  A    between atoms: _259  and  _261
REMARK  105  A    between atoms: _261  and  _262
REMARK  106  A    between atoms: _261  and  _264
REMARK  107  A    between atoms: _264  and  _265
REMARK  108  A    between atoms: _270  and  _271
REMARK                            x       y       z     vdW  Elec       q    Type
REMARK                         _______ _______ _______ _____ _____    ______ ____
ROOT
ATOM      1  CA  SER A   1      -3.366  10.030 -10.583  0.00  0.00    +0.163 C 
ENDROOT
BRANCH   1   2
ATOM      2  N   SER A   1      -3.027   8.648 -10.920  0.00  0.00    -0.237 NA
ATOM      3  H   SER A   1      -3.696   8.087 -11.485  0.00  0.00    +0.142 HD
ENDBRANCH   1   2
BRANCH   1   4
ATOM      4  CB  SER A   1      -3.374  10.308  -9.069  0.00  0.00    +0.227 C 
ATOM      5  OG  SER A   1      -3.074  11.431  -8.624  0.00  0.00    -0.287 OA
ENDBRANCH   1   4
BRANCH   1   6
ATOM      6  C   SER A   1      -4.724  10.403 -11.165  0.00  0.00    +0.162 C 
BRANCH   6   7
ATOM      7  O   SER A   1      -4.946  11.785 -10.933  0.00  0.00    -0.380 OA
ATOM      8  H   SER A   1      -5.826  12.044 -11.306  0.00  0.00    +0.211 HD
ENDBRANCH   6   7
ENDBRANCH   1   6
TORSDOF 4
REMARK  Name = ../refined-set-2016/2qw1/2qw1_pocket.pdb
REMARK  108 active torsions:
REMARK  status: ('A' for Active; 'I' for Inactive)
REMARK    1  A    between atoms: _1  and  _3
REMARK    2  A    between atoms: _3  and  _4
REMARK    3  A    between atoms: _3  and  _6
REMARK    4  A    between atoms: _6  and  _7
REMARK    5  A    between atoms: _12  and  _13
REMARK    6  A    between atoms: _15  and  _17
REMARK    7  A    between atoms: _17  and  _18
REMARK    8  A    between atoms: _17  and  _20
REMARK    9  A    between atoms: _20  and  _21
REMARK   10  A    between atoms: _21  and  _22
REMARK   11  A    between atoms: _22  and  _23
REMARK   12  A    between atoms: _23  and  _24
REMARK   13  A    between atoms: _28  and  _30
REMARK   14  A    between atoms: _30  and  _31
REMARK   15  A    between atoms: _30  and  _33
REMARK   16  A    between atoms: _33  and  _34
REMARK   17  A    between atoms: _37  and  _39
REMARK   18  A    between atoms: _39  and  _40
REMARK   19  A    between atoms: _39  and  _42
REMARK   20  A    between atoms: _42  and  _43
REMARK   21  A    between atoms: _46  and  _48
REMARK   22  A    between atoms: _48  and  _49
REMARK   23  A    between atoms: _48  and  _51
REMARK   24  A    between atoms: _51  and  _52
REMARK   25  A    between atoms: _57  and  _59
REMARK   26  A    between atoms: _59  and  _60
REMARK   27  A    between atoms: _59  and  _62
REMARK   28  A    between atoms: _62  and  _63
REMARK   29  A    between atoms: _69  and  _71
REMARK   30  A    between atoms: _71  and  _72
REMARK   31  A    between atoms: _71  and  _74
REMARK   32  A    between atoms: _74  and  _75
REMARK   33  A    between atoms: _77  and  _79
REMARK   34  A    between atoms: _79  and  _80
REMARK   35  A    between atoms: _82  and  _84
REMARK   36  A    between atoms: _84  and  _85
REMARK   37  A    between atoms: _84  and  _87
REMARK   38  A    between atoms: _87  and  _88
REMARK   39  A    between atoms: _88  and  _89
REMARK   40  A    between atoms: _92  and  _94
REMARK   41  A    between atoms: _94  and  _95
REMARK   42  A    between atoms: _94  and  _97
REMARK   43  A    between atoms: _97  and  _98
REMARK   44  A    between atoms: _104  and  _105
REMARK   45  A    between atoms: _110  and  _112
REMARK   46  A    between atoms: _112  and  _113
REMARK   47  A    between atoms: _112  and  _115
REMARK   48  A    between atoms: _115  and  _116
REMARK   49  A    between atoms: _119  and  _121
REMARK   50  A    between atoms: _121  and  _122
REMARK   51  A    between atoms: _125  and  _127
REMARK   52  A    between atoms: _127  and  _128
REMARK   53  A    between atoms: _127  and  _130
REMARK   54  A    between atoms: _130  and  _131
REMARK   55  A    between atoms: _131  and  _132
REMARK   56  A    between atoms: _132  and  _133
REMARK   57  A    between atoms: _142  and  _144
REMARK   58  A    between atoms: _144  and  _145
REMARK   59  A    between atoms: _144  and  _147
REMARK   60  A    between atoms: _147  and  _148
REMARK   61  A    between atoms: _148  and  _149
REMARK   62  A    between atoms: _151  and  _153
REMARK   63  A    between atoms: _153  and  _154
REMARK   64  A    between atoms: _153  and  _156
REMARK   65  A    between atoms: _156  and  _157
REMARK   66  A    between atoms: _167  and  _169
REMARK   67  A    between atoms: _169  and  _170
REMARK   68  A    between atoms: _169  and  _172
REMARK   69  A    between atoms: _172  and  _173
REMARK   70  A    between atoms: _176  and  _178
REMARK   71  A    between atoms: _178  and  _179
REMARK   72  A    between atoms: _178  and  _181
REMARK   73  A    between atoms: _181  and  _182
REMARK   74  A    between atoms: _187  and  _189
REMARK   75  A    between atoms: _189  and  _190
REMARK   76  A    between atoms: _189  and  _192
REMARK   77  A    between atoms: _192  and  _193
REMARK   78  A    between atoms: _198  and  _200
REMARK   79  A    between atoms: _200  and  _201
REMARK   80  A    between atoms: _200  and  _203
REMARK   81  A    between atoms: _203  and  _204
REMARK   82  A    between atoms: _207  and  _209
REMARK   83  A    between atoms: _209  and  _210
REMARK   84  A    between atoms: _213  and  _215
REMARK   85  A    between atoms: _215  and  _216
REMARK   86  A    between atoms: _215  and  _218
REMARK   87  A    between atoms: _218  and  _219
REMARK   88  A    between atoms: _219  and  _220
REMARK   89  A    between atoms: _222  and  _224
REMARK   90  A    between atoms: _224  and  _225
REMARK   91  A    between atoms: _224  and  _227
REMARK   92  A    between atoms: _230  and  _232
REMARK   93  A    between atoms: _232  and  _233
REMARK   94  A    between atoms: _232  and  _235
REMARK   95  A    between atoms: _235  and  _236
REMARK   96  A    between atoms: _239  and  _241
REMARK   97  A    between atoms: _241  and  _242
REMARK   98  A    between atoms: _241  and  _244
REMARK   99  A    between atoms: _244  and  _245
REMARK  100  A    between atoms: _248  and  _250
REMARK  101  A    between atoms: _250  and  _251
REMARK  102  A    between atoms: _250  and  _253
REMARK  103  A    between atoms: _253  and  _254
REMARK  104  A    between atoms: _259  and  _261
REMARK  105  A    between atoms: _261  and  _262
REMARK  106  A    between atoms: _261  and  _264
REMARK  107  A    between atoms: _264  and  _265
REMARK  108  A    between atoms: _270  and  _271
REMARK                            x       y       z     vdW  Elec       q    Type
REMARK                         _______ _______ _______ _____ _____    ______ ____
ROOT
ATOM      1  CA  GLU A   2     -14.446  19.507 -12.003  0.00  0.00    +0.137 C 
ENDROOT
BRANCH   1   4
ATOM      2  C   GLY A   1     -12.836  20.174 -10.330  0.00  0.00    +0.240 C 
ATOM      3  O   GLY A   1     -13.729  20.091  -9.480  0.00  0.00    -0.274 OA
ATOM      4  N   GLU A   2     -13.076  19.902 -11.617  0.00  0.00    -0.298 N 
ATOM      5  H   GLU A   2     -12.319  19.967 -12.327  0.00  0.00    +0.150 HD
BRANCH   2   6
ATOM      6  CA  GLY A   1     -11.424  20.612  -9.938  0.00  0.00    +0.169 C 
BRANCH   6   7
ATOM      7  N   GLY A   1     -11.191  20.543  -8.491  0.00  0.00    -0.236 NA
ATOM      8  H   GLY A   1     -10.559  19.814  -8.104  0.00  0.00    +0.142 HD
ENDBRANCH   6   7
ENDBRANCH   2   6
ENDBRANCH   1   4
BRANCH   1   9
ATOM      9  C   GLU A   2     -14.910  18.256 -11.247  0.00  0.00    +0.227 C 
ATOM     10  O   GLU A   2     -14.211  17.248 -11.260  0.00  0.00    -0.286 OA
ENDBRANCH   1   9
BRANCH   1  11
ATOM     11  CB  GLU A   2     -14.570  19.247 -13.506  0.00  0.00    +0.039 C 
BRANCH  11  12
ATOM     12  CG  GLU A   2     -16.010  18.945 -13.882  0.00  0.00    +0.116 C 
BRANCH  12  13
ATOM     13  CD  GLU A   2     -16.222  18.674 -15.353  0.00  0.00    +0.365 C 
ATOM     14  OE2 GLU A   2     -17.398  18.683 -15.773  0.00  0.00    -0.246 OA
ATOM     15  OE1 GLU A   2     -15.235  18.444 -16.083  0.00  0.00    -0.246 OA
ENDBRANCH  12  13
ENDBRANCH  11  12
ENDBRANCH   1  11
TORSDOF 7
REMARK  Name = ../refined-set-2016/2qw1/2qw1_pocket.pdb
REMARK  108 active torsions:
REMARK  status: ('A' for Active; 'I' for Inactive)
REMARK    1  A    between atoms: _1  and  _3
REMARK    2  A    between atoms: _3  and  _4
REMARK    3  A    between atoms: _3  and  _6
REMARK    4  A    between atoms: _6  and  _7
REMARK    5  A    between atoms: _12  and  _13
REMARK    6  A    between atoms: _15  and  _17
REMARK    7  A    between atoms: _17  and  _18
REMARK    8  A    between atoms: _17  and  _20
REMARK    9  A    between atoms: _20  and  _21
REMARK   10  A    between atoms: _21  and  _22
REMARK   11  A    between atoms: _22  and  _23
REMARK   12  A    between atoms: _23  and  _24
REMARK   13  A    between atoms: _28  and  _30
REMARK   14  A    between atoms: _30  and  _31
REMARK   15  A    between atoms: _30  and  _33
REMARK   16  A    between atoms: _33  and  _34
REMARK   17  A    between atoms: _37  and  _39
REMARK   18  A    between atoms: _39  and  _40
REMARK   19  A    between atoms: _39  and  _42
REMARK   20  A    between atoms: _42  and  _43
REMARK   21  A    between atoms: _46  and  _48
REMARK   22  A    between atoms: _48  and  _49
REMARK   23  A    between atoms: _48  and  _51
REMARK   24  A    between atoms: _51  and  _52
REMARK   25  A    between atoms: _57  and  _59
REMARK   26  A    between atoms: _59  and  _60
REMARK   27  A    between atoms: _59  and  _62
REMARK   28  A    between atoms: _62  and  _63
REMARK   29  A    between atoms: _69  and  _71
REMARK   30  A    between atoms: _71  and  _72
REMARK   31  A    between atoms: _71  and  _74
REMARK   32  A    between atoms: _74  and  _75
REMARK   33  A    between atoms: _77  and  _79
REMARK   34  A    between atoms: _79  and  _80
REMARK   35  A    between atoms: _82  and  _84
REMARK   36  A    between atoms: _84  and  _85
REMARK   37  A    between atoms: _84  and  _87
REMARK   38  A    between atoms: _87  and  _88
REMARK   39  A    between atoms: _88  and  _89
REMARK   40  A    between atoms: _92  and  _94
REMARK   41  A    between atoms: _94  and  _95
REMARK   42  A    between atoms: _94  and  _97
REMARK   43  A    between atoms: _97  and  _98
REMARK   44  A    between atoms: _104  and  _105
REMARK   45  A    between atoms: _110  and  _112
REMARK   46  A    between atoms: _112  and  _113
REMARK   47  A    between atoms: _112  and  _115
REMARK   48  A    between atoms: _115  and  _116
REMARK   49  A    between atoms: _119  and  _121
REMARK   50  A    between atoms: _121  and  _122
REMARK   51  A    between atoms: _125  and  _127
REMARK   52  A    between atoms: _127  and  _128
REMARK   53  A    between atoms: _127  and  _130
REMARK   54  A    between atoms: _130  and  _131
REMARK   55  A    between atoms: _131  and  _132
REMARK   56  A    between atoms: _132  and  _133
REMARK   57  A    between atoms: _142  and  _144
REMARK   58  A    between atoms: _144  and  _145
REMARK   59  A    between atoms: _144  and  _147
REMARK   60  A    between atoms: _147  and  _148
REMARK   61  A    between atoms: _148  and  _149
REMARK   62  A    between atoms: _151  and  _153
REMARK   63  A    between atoms: _153  and  _154
REMARK   64  A    between atoms: _153  and  _156
REMARK   65  A    between atoms: _156  and  _157
REMARK   66  A    between atoms: _167  and  _169
REMARK   67  A    between atoms: _169  and  _170
REMARK   68  A    between atoms: _169  and  _172
REMARK   69  A    between atoms: _172  and  _173
REMARK   70  A    between atoms: _176  and  _178
REMARK   71  A    between atoms: _178  and  _179
REMARK   72  A    between atoms: _178  and  _181
REMARK   73  A    between atoms: _181  and  _182
REMARK   74  A    between atoms: _187  and  _189
REMARK   75  A    between atoms: _189  and  _190
REMARK   76  A    between atoms: _189  and  _192
REMARK   77  A    between atoms: _192  and  _193
REMARK   78  A    between atoms: _198  and  _200
REMARK   79  A    between atoms: _200  and  _201
REMARK   80  A    between atoms: _200  and  _203
REMARK   81  A    between atoms: _203  and  _204
REMARK   82  A    between atoms: _207  and  _209
REMARK   83  A    between atoms: _209  and  _210
REMARK   84  A    between atoms: _213  and  _215
REMARK   85  A    between atoms: _215  and  _216
REMARK   86  A    between atoms: _215  and  _218
REMARK   87  A    between atoms: _218  and  _219
REMARK   88  A    between atoms: _219  and  _220
REMARK   89  A    between atoms: _222  and  _224
REMARK   90  A    between atoms: _224  and  _225
REMARK   91  A    between atoms: _224  and  _227
REMARK   92  A    between atoms: _230  and  _232
REMARK   93  A    between atoms: _232  and  _233
REMARK   94  A    between atoms: _232  and  _235
REMARK   95  A    between atoms: _235  and  _236
REMARK   96  A    between atoms: _239  and  _241
REMARK   97  A    between atoms: _241  and  _242
REMARK   98  A    between atoms: _241  and  _244
REMARK   99  A    between atoms: _244  and  _245
REMARK  100  A    between atoms: _248  and  _250
REMARK  101  A    between atoms: _250  and  _251
REMARK  102  A    between atoms: _250  and  _253
REMARK  103  A    between atoms: _253  and  _254
REMARK  104  A    between atoms: _259  and  _261
REMARK  105  A    between atoms: _261  and  _262
REMARK  106  A    between atoms: _261  and  _264
REMARK  107  A    between atoms: _264  and  _265
REMARK  108  A    between atoms: _270  and  _271
REMARK                            x       y       z     vdW  Elec       q    Type
REMARK                         _______ _______ _______ _____ _____    ______ ____
ROOT
ATOM      1  C   PRO A   2      -9.532  12.195 -11.286  0.00  0.00    +0.241 C 
ATOM      2  O   PRO A   2      -9.208  11.787 -10.176  0.00  0.00    -0.273 OA
ATOM      3  N   ASP A   3      -8.959  13.250 -11.864  0.00  0.00    -0.297 N 
ATOM      4  H   ASP A   3      -9.280  13.567 -12.801  0.00  0.00    +0.150 HD
ENDROOT
BRANCH   1   8
ATOM      5  C   HIS A   1     -12.072  13.446 -12.230  0.00  0.00    +0.242 C 
ATOM      6  O   HIS A   1     -11.853  13.728 -11.047  0.00  0.00    -0.273 OA
ATOM      7  N   PRO A   2     -11.506  12.375 -12.830  0.00  0.00    -0.272 N 
ATOM      8  CA  PRO A   2     -10.661  11.488 -12.026  0.00  0.00    +0.152 C 
ATOM      9  CB  PRO A   2     -10.111  10.481 -13.047  0.00  0.00    +0.031 C 
ATOM     10  CG  PRO A   2     -11.110  10.494 -14.152  0.00  0.00    +0.024 C 
ATOM     11  CD  PRO A   2     -11.674  11.888 -14.216  0.00  0.00    +0.094 C 
BRANCH   5  12
ATOM     12  CA  HIS A   1     -13.055  14.284 -13.058  0.00  0.00    +0.151 C 
BRANCH  12  13
ATOM     13  N   HIS A   1     -14.298  14.437 -12.298  0.00  0.00    -0.238 NA
ATOM     14  H   HIS A   1     -14.604  15.379 -11.982  0.00  0.00    +0.142 HD
ENDBRANCH  12  13
BRANCH  12  15
ATOM     15  CB  HIS A   1     -12.430  15.625 -13.432  0.00  0.00    +0.074 C 
BRANCH  15  16
ATOM     16  CG  HIS A   1     -11.291  15.489 -14.396  0.00  0.00    +0.082 A 
ATOM     17  ND1 HIS A   1     -10.058  15.008 -14.017  0.00  0.00    -0.227 NA
ATOM     18  CE1 HIS A   1      -9.256  14.972 -15.069  0.00  0.00    +0.199 A 
ATOM     19  NE2 HIS A   1      -9.932  15.405 -16.123  0.00  0.00    -0.221 NA
ATOM     20  CD2 HIS A   1     -11.216  15.716 -15.730  0.00  0.00    +0.115 A 
ENDBRANCH  15  16
ENDBRANCH  12  15
ENDBRANCH   5  12
ENDBRANCH   1   8
BRANCH   3  21
ATOM     21  CA  ASP A   3      -7.871  13.969 -11.178  0.00  0.00    +0.160 C 
BRANCH  21  22
ATOM     22  C   ASP A   3      -8.383  14.839 -10.053  0.00  0.00    +0.241 C 
ATOM     23  O   ASP A   3      -7.700  14.987  -9.036  0.00  0.00    -0.273 OA
ATOM     24  N   ALA A   4      -9.580  15.399 -10.215  0.00  0.00    -0.298 N 
ATOM     25  H   ALA A   4     -10.087  15.277 -11.115  0.00  0.00    +0.150 HD
BRANCH  24  26
ATOM     26  CA  ALA A   4     -10.192  16.187  -9.136  0.00  0.00    +0.137 C 
ATOM     27  CB  ALA A   4     -11.474  16.908  -9.622  0.00  0.00    +0.030 C 
BRANCH  26  28
ATOM     28  C   ALA A   4     -10.498  15.269  -7.962  0.00  0.00    +0.227 C 
ATOM     29  O   ALA A   4     -10.182  15.591  -6.832  0.00  0.00    -0.286 OA
ENDBRANCH  26  28
ENDBRANCH  24  26
ENDBRANCH  21  22
BRANCH  21  30
ATOM     30  CB  ASP A   3      -7.013  14.781 -12.151  0.00  0.00    +0.143 C 
BRANCH  30  31
ATOM     31  CG  ASP A   3      -6.300  13.892 -13.176  0.00  0.00    +0.367 C 
ATOM     32  OD2 ASP A   3      -5.942  12.755 -12.833  0.00  0.00    -0.246 OA
ATOM     33  OD1 ASP A   3      -6.137  14.317 -14.321  0.00  0.00    -0.246 OA
ENDBRANCH  30  31
ENDBRANCH  21  30
ENDBRANCH   3  21
TORSDOF 11
REMARK  Name = ../refined-set-2016/2qw1/2qw1_pocket.pdb
REMARK  108 active torsions:
REMARK  status: ('A' for Active; 'I' for Inactive)
REMARK    1  A    between atoms: _1  and  _3
REMARK    2  A    between atoms: _3  and  _4
REMARK    3  A    between atoms: _3  and  _6
REMARK    4  A    between atoms: _6  and  _7
REMARK    5  A    between atoms: _12  and  _13
REMARK    6  A    between atoms: _15  and  _17
REMARK    7  A    between atoms: _17  and  _18
REMARK    8  A    between atoms: _17  and  _20
REMARK    9  A    between atoms: _20  and  _21
REMARK   10  A    between atoms: _21  and  _22
REMARK   11  A    between atoms: _22  and  _23
REMARK   12  A    between atoms: _23  and  _24
REMARK   13  A    between atoms: _28  and  _30
REMARK   14  A    between atoms: _30  and  _31
REMARK   15  A    between atoms: _30  and  _33
REMARK   16  A    between atoms: _33  and  _34
REMARK   17  A    between atoms: _37  and  _39
REMARK   18  A    between atoms: _39  and  _40
REMARK   19  A    between atoms: _39  and  _42
REMARK   20  A    between atoms: _42  and  _43
REMARK   21  A    between atoms: _46  and  _48
REMARK   22  A    between atoms: _48  and  _49
REMARK   23  A    between atoms: _48  and  _51
REMARK   24  A    between atoms: _51  and  _52
REMARK   25  A    between atoms: _57  and  _59
REMARK   26  A    between atoms: _59  and  _60
REMARK   27  A    between atoms: _59  and  _62
REMARK   28  A    between atoms: _62  and  _63
REMARK   29  A    between atoms: _69  and  _71
REMARK   30  A    between atoms: _71  and  _72
REMARK   31  A    between atoms: _71  and  _74
REMARK   32  A    between atoms: _74  and  _75
REMARK   33  A    between atoms: _77  and  _79
REMARK   34  A    between atoms: _79  and  _80
REMARK   35  A    between atoms: _82  and  _84
REMARK   36  A    between atoms: _84  and  _85
REMARK   37  A    between atoms: _84  and  _87
REMARK   38  A    between atoms: _87  and  _88
REMARK   39  A    between atoms: _88  and  _89
REMARK   40  A    between atoms: _92  and  _94
REMARK   41  A    between atoms: _94  and  _95
REMARK   42  A    between atoms: _94  and  _97
REMARK   43  A    between atoms: _97  and  _98
REMARK   44  A    between atoms: _104  and  _105
REMARK   45  A    between atoms: _110  and  _112
REMARK   46  A    between atoms: _112  and  _113
REMARK   47  A    between atoms: _112  and  _115
REMARK   48  A    between atoms: _115  and  _116
REMARK   49  A    between atoms: _119  and  _121
REMARK   50  A    between atoms: _121  and  _122
REMARK   51  A    between atoms: _125  and  _127
REMARK   52  A    between atoms: _127  and  _128
REMARK   53  A    between atoms: _127  and  _130
REMARK   54  A    between atoms: _130  and  _131
REMARK   55  A    between atoms: _131  and  _132
REMARK   56  A    between atoms: _132  and  _133
REMARK   57  A    between atoms: _142  and  _144
REMARK   58  A    between atoms: _144  and  _145
REMARK   59  A    between atoms: _144  and  _147
REMARK   60  A    between atoms: _147  and  _148
REMARK   61  A    between atoms: _148  and  _149
REMARK   62  A    between atoms: _151  and  _153
REMARK   63  A    between atoms: _153  and  _154
REMARK   64  A    between atoms: _153  and  _156
REMARK   65  A    between atoms: _156  and  _157
REMARK   66  A    between atoms: _167  and  _169
REMARK   67  A    between atoms: _169  and  _170
REMARK   68  A    between atoms: _169  and  _172
REMARK   69  A    between atoms: _172  and  _173
REMARK   70  A    between atoms: _176  and  _178
REMARK   71  A    between atoms: _178  and  _179
REMARK   72  A    between atoms: _178  and  _181
REMARK   73  A    between atoms: _181  and  _182
REMARK   74  A    between atoms: _187  and  _189
REMARK   75  A    between atoms: _189  and  _190
REMARK   76  A    between atoms: _189  and  _192
REMARK   77  A    between atoms: _192  and  _193
REMARK   78  A    between atoms: _198  and  _200
REMARK   79  A    between atoms: _200  and  _201
REMARK   80  A    between atoms: _200  and  _203
REMARK   81  A    between atoms: _203  and  _204
REMARK   82  A    between atoms: _207  and  _209
REMARK   83  A    between atoms: _209  and  _210
REMARK   84  A    between atoms: _213  and  _215
REMARK   85  A    between atoms: _215  and  _216
REMARK   86  A    between atoms: _215  and  _218
REMARK   87  A    between atoms: _218  and  _219
REMARK   88  A    between atoms: _219  and  _220
REMARK   89  A    between atoms: _222  and  _224
REMARK   90  A    between atoms: _224  and  _225
REMARK   91  A    between atoms: _224  and  _227
REMARK   92  A    between atoms: _230  and  _232
REMARK   93  A    between atoms: _232  and  _233
REMARK   94  A    between atoms: _232  and  _235
REMARK   95  A    between atoms: _235  and  _236
REMARK   96  A    between atoms: _239  and  _241
REMARK   97  A    between atoms: _241  and  _242
REMARK   98  A    between atoms: _241  and  _244
REMARK   99  A    between atoms: _244  and  _245
REMARK  100  A    between atoms: _248  and  _250
REMARK  101  A    between atoms: _250  and  _251
REMARK  102  A    between atoms: _250  and  _253
REMARK  103  A    between atoms: _253  and  _254
REMARK  104  A    between atoms: _259  and  _261
REMARK  105  A    between atoms: _261  and  _262
REMARK  106  A    between atoms: _261  and  _264
REMARK  107  A    between atoms: _264  and  _265
REMARK  108  A    between atoms: _270  and  _271
REMARK                            x       y       z     vdW  Elec       q    Type
REMARK                         _______ _______ _______ _____ _____    ______ ____
ROOT
ATOM      1  NE  ARG A   1      -4.021  16.300  -9.873  0.00  0.00    -0.265 N 
ATOM      2  HE  ARG A   1      -3.574  15.363  -9.819  0.00  0.00    +0.259 HD
ATOM      3  CZ  ARG A   1      -3.909  16.972 -11.016  0.00  0.00    +0.342 C 
ATOM      4  NH2 ARG A   1      -4.430  18.192 -11.150  0.00  0.00    -0.292 N 
ATOM      5 HH21 ARG A   1      -4.933  18.633 -10.354  0.00  0.00    +0.255 HD
ATOM      6 HH22 ARG A   1      -4.333  18.703 -12.051  0.00  0.00    +0.255 HD
ATOM      7  NH1 ARG A   1      -3.250  16.408 -12.038  0.00  0.00    -0.292 N 
ATOM      8 HH11 ARG A   1      -2.836  15.460 -11.930  0.00  0.00    +0.255 HD
ATOM      9 HH12 ARG A   1      -3.153  16.918 -12.939  0.00  0.00    +0.255 HD
ENDROOT
BRANCH   1  10
ATOM     10  CD  ARG A   1      -4.728  16.784  -8.685  0.00  0.00    +0.174 C 
BRANCH  10  11
ATOM     11  CG  ARG A   1      -4.962  15.636  -7.718  0.00  0.00    +0.045 C 
BRANCH  11  12
ATOM     12  CB  ARG A   1      -5.977  16.030  -6.662  0.00  0.00    +0.029 C 
BRANCH  12  13
ATOM     13  CA  ARG A   1      -6.237  14.873  -5.724  0.00  0.00    +0.133 C 
BRANCH  13  14
ATOM     14  N   ARG A   1      -7.036  13.872  -6.419  0.00  0.00    -0.239 NA
ATOM     15  H   ARG A   1      -7.468  14.099  -7.337  0.00  0.00    +0.142 HD
ENDBRANCH  13  14
BRANCH  13  16
ATOM     16  C   ARG A   1      -6.918  15.349  -4.435  0.00  0.00    +0.224 C 
ATOM     17  O   ARG A   1      -6.256  15.578  -3.411  0.00  0.00    -0.287 OA
ENDBRANCH  13  16
ENDBRANCH  12  13
ENDBRANCH  11  12
ENDBRANCH  10  11
ENDBRANCH   1  10
TORSDOF 6
REMARK  Name = ../refined-set-2016/2qw1/2qw1_pocket.pdb
REMARK  108 active torsions:
REMARK  status: ('A' for Active; 'I' for Inactive)
REMARK    1  A    between atoms: _1  and  _3
REMARK    2  A    between atoms: _3  and  _4
REMARK    3  A    between atoms: _3  and  _6
REMARK    4  A    between atoms: _6  and  _7
REMARK    5  A    between atoms: _12  and  _13
REMARK    6  A    between atoms: _15  and  _17
REMARK    7  A    between atoms: _17  and  _18
REMARK    8  A    between atoms: _17  and  _20
REMARK    9  A    between atoms: _20  and  _21
REMARK   10  A    between atoms: _21  and  _22
REMARK   11  A    between atoms: _22  and  _23
REMARK   12  A    between atoms: _23  and  _24
REMARK   13  A    between atoms: _28  and  _30
REMARK   14  A    between atoms: _30  and  _31
REMARK   15  A    between atoms: _30  and  _33
REMARK   16  A    between atoms: _33  and  _34
REMARK   17  A    between atoms: _37  and  _39
REMARK   18  A    between atoms: _39  and  _40
REMARK   19  A    between atoms: _39  and  _42
REMARK   20  A    between atoms: _42  and  _43
REMARK   21  A    between atoms: _46  and  _48
REMARK   22  A    between atoms: _48  and  _49
REMARK   23  A    between atoms: _48  and  _51
REMARK   24  A    between atoms: _51  and  _52
REMARK   25  A    between atoms: _57  and  _59
REMARK   26  A    between atoms: _59  and  _60
REMARK   27  A    between atoms: _59  and  _62
REMARK   28  A    between atoms: _62  and  _63
REMARK   29  A    between atoms: _69  and  _71
REMARK   30  A    between atoms: _71  and  _72
REMARK   31  A    between atoms: _71  and  _74
REMARK   32  A    between atoms: _74  and  _75
REMARK   33  A    between atoms: _77  and  _79
REMARK   34  A    between atoms: _79  and  _80
REMARK   35  A    between atoms: _82  and  _84
REMARK   36  A    between atoms: _84  and  _85
REMARK   37  A    between atoms: _84  and  _87
REMARK   38  A    between atoms: _87  and  _88
REMARK   39  A    between atoms: _88  and  _89
REMARK   40  A    between atoms: _92  and  _94
REMARK   41  A    between atoms: _94  and  _95
REMARK   42  A    between atoms: _94  and  _97
REMARK   43  A    between atoms: _97  and  _98
REMARK   44  A    between atoms: _104  and  _105
REMARK   45  A    between atoms: _110  and  _112
REMARK   46  A    between atoms: _112  and  _113
REMARK   47  A    between atoms: _112  and  _115
REMARK   48  A    between atoms: _115  and  _116
REMARK   49  A    between atoms: _119  and  _121
REMARK   50  A    between atoms: _121  and  _122
REMARK   51  A    between atoms: _125  and  _127
REMARK   52  A    between atoms: _127  and  _128
REMARK   53  A    between atoms: _127  and  _130
REMARK   54  A    between atoms: _130  and  _131
REMARK   55  A    between atoms: _131  and  _132
REMARK   56  A    between atoms: _132  and  _133
REMARK   57  A    between atoms: _142  and  _144
REMARK   58  A    between atoms: _144  and  _145
REMARK   59  A    between atoms: _144  and  _147
REMARK   60  A    between atoms: _147  and  _148
REMARK   61  A    between atoms: _148  and  _149
REMARK   62  A    between atoms: _151  and  _153
REMARK   63  A    between atoms: _153  and  _154
REMARK   64  A    between atoms: _153  and  _156
REMARK   65  A    between atoms: _156  and  _157
REMARK   66  A    between atoms: _167  and  _169
REMARK   67  A    between atoms: _169  and  _170
REMARK   68  A    between atoms: _169  and  _172
REMARK   69  A    between atoms: _172  and  _173
REMARK   70  A    between atoms: _176  and  _178
REMARK   71  A    between atoms: _178  and  _179
REMARK   72  A    between atoms: _178  and  _181
REMARK   73  A    between atoms: _181  and  _182
REMARK   74  A    between atoms: _187  and  _189
REMARK   75  A    between atoms: _189  and  _190
REMARK   76  A    between atoms: _189  and  _192
REMARK   77  A    between atoms: _192  and  _193
REMARK   78  A    between atoms: _198  and  _200
REMARK   79  A    between atoms: _200  and  _201
REMARK   80  A    between atoms: _200  and  _203
REMARK   81  A    between atoms: _203  and  _204
REMARK   82  A    between atoms: _207  and  _209
REMARK   83  A    between atoms: _209  and  _210
REMARK   84  A    between atoms: _213  and  _215
REMARK   85  A    between atoms: _215  and  _216
REMARK   86  A    between atoms: _215  and  _218
REMARK   87  A    between atoms: _218  and  _219
REMARK   88  A    between atoms: _219  and  _220
REMARK   89  A    between atoms: _222  and  _224
REMARK   90  A    between atoms: _224  and  _225
REMARK   91  A    between atoms: _224  and  _227
REMARK   92  A    between atoms: _230  and  _232
REMARK   93  A    between atoms: _232  and  _233
REMARK   94  A    between atoms: _232  and  _235
REMARK   95  A    between atoms: _235  and  _236
REMARK   96  A    between atoms: _239  and  _241
REMARK   97  A    between atoms: _241  and  _242
REMARK   98  A    between atoms: _241  and  _244
REMARK   99  A    between atoms: _244  and  _245
REMARK  100  A    between atoms: _248  and  _250
REMARK  101  A    between atoms: _250  and  _251
REMARK  102  A    between atoms: _250  and  _253
REMARK  103  A    between atoms: _253  and  _254
REMARK  104  A    between atoms: _259  and  _261
REMARK  105  A    between atoms: _261  and  _262
REMARK  106  A    between atoms: _261  and  _264
REMARK  107  A    between atoms: _264  and  _265
REMARK  108  A    between atoms: _270  and  _271
REMARK                            x       y       z     vdW  Elec       q    Type
REMARK                         _______ _______ _______ _____ _____    ______ ____
ROOT
ATOM      1  CA  TRP A   2     -10.079  24.122 -12.611  0.00  0.00    +0.153 C 
ENDROOT
BRANCH   1   3
ATOM      2  C   MET A   1     -12.562  24.139 -12.804  0.00  0.00    +0.238 C 
ATOM      3  N   TRP A   2     -11.442  23.978 -12.078  0.00  0.00    -0.297 N 
ATOM      4  H   TRP A   2     -11.547  23.735 -11.072  0.00  0.00    +0.150 HD
ATOM      5  O   MET A   1     -12.571  24.402 -14.028  0.00  0.00    -0.274 OA
BRANCH   2   6
ATOM      6  CA  MET A   1     -13.880  23.944 -12.053  0.00  0.00    +0.146 C 
BRANCH   6   7
ATOM      7  N   MET A   1     -13.839  24.405 -10.643  0.00  0.00    -0.238 NA
ATOM      8  H   MET A   1     -14.068  23.727  -9.888  0.00  0.00    +0.142 HD
ENDBRANCH   6   7
BRANCH   6   9
ATOM      9  CB  MET A   1     -15.043  24.621 -12.818  0.00  0.00    +0.038 C 
BRANCH   9  10
ATOM     10  CG  MET A   1     -16.431  24.320 -12.240  0.00  0.00    +0.060 C 
BRANCH  10  11
ATOM     11  SD  MET A   1     -16.873  22.588 -12.446  0.00  0.00    -0.139 S 
ATOM     12  CE  MET A   1     -17.283  22.574 -14.189  0.00  0.00    +0.069 C 
ENDBRANCH  10  11
ENDBRANCH   9  10
ENDBRANCH   6   9
ENDBRANCH   2   6
ENDBRANCH   1   3
BRANCH   1  13
ATOM     13  C   TRP A   2      -9.704  25.568 -12.996  0.00  0.00    +0.241 C 
ATOM     14  N   ASP A   3     -10.545  26.532 -12.628  0.00  0.00    -0.298 N 
ATOM     15  H   ASP A   3     -11.263  26.324 -11.905  0.00  0.00    +0.150 HD
ATOM     16  O   TRP A   2      -8.646  25.799 -13.605  0.00  0.00    -0.273 OA
BRANCH  14  17
ATOM     17  CA  ASP A   3     -10.491  27.877 -13.209  0.00  0.00    +0.148 C 
BRANCH  17  18
ATOM     18  C   ASP A   3     -10.003  28.934 -12.215  0.00  0.00    +0.227 C 
ATOM     19  O   ASP A   3     -10.438  28.964 -11.051  0.00  0.00    -0.286 OA
ENDBRANCH  17  18
BRANCH  17  20
ATOM     20  CB  ASP A   3     -11.878  28.273 -13.739  0.00  0.00    +0.142 C 
BRANCH  20  21
ATOM     21  CG  ASP A   3     -11.880  29.640 -14.405  0.00  0.00    +0.367 C 
ATOM     22  OD2 ASP A   3     -12.448  30.585 -13.807  0.00  0.00    -0.246 OA
ATOM     23  OD1 ASP A   3     -11.311  29.749 -15.519  0.00  0.00    -0.246 OA
ENDBRANCH  20  21
ENDBRANCH  17  20
ENDBRANCH  14  17
ENDBRANCH   1  13
BRANCH   1  24
ATOM     24  CB  TRP A   2      -9.859  23.253 -13.857  0.00  0.00    +0.057 C 
BRANCH  24  25
ATOM     25  CG  TRP A   2     -10.156  21.802 -13.760  0.00  0.00    -0.002 A 
ATOM     26  CD2 TRP A   2      -9.456  20.828 -12.964  0.00  0.00    +0.013 A 
ATOM     27  CE3 TRP A   2      -8.392  20.901 -12.045  0.00  0.00    +0.001 A 
ATOM     28  CZ3 TRP A   2      -7.950  19.727 -11.434  0.00  0.00    +0.000 A 
ATOM     29  CH2 TRP A   2      -8.560  18.478 -11.736  0.00  0.00    +0.001 A 
ATOM     30  CZ2 TRP A   2      -9.613  18.386 -12.625  0.00  0.00    +0.017 A 
ATOM     31  CE2 TRP A   2     -10.041  19.565 -13.245  0.00  0.00    +0.056 A 
ATOM     32  NE1 TRP A   2     -11.046  19.769 -14.164  0.00  0.00    -0.352 N 
ATOM     33  HE1 TRP A   2     -11.656  19.029 -14.565  0.00  0.00    +0.166 HD
ATOM     34  CD1 TRP A   2     -11.113  21.111 -14.466  0.00  0.00    +0.068 A 
ENDBRANCH  24  25
ENDBRANCH   1  24
TORSDOF 13
REMARK  Name = ../refined-set-2016/2qw1/2qw1_pocket.pdb
REMARK  108 active torsions:
REMARK  status: ('A' for Active; 'I' for Inactive)
REMARK    1  A    between atoms: _1  and  _3
REMARK    2  A    between atoms: _3  and  _4
REMARK    3  A    between atoms: _3  and  _6
REMARK    4  A    between atoms: _6  and  _7
REMARK    5  A    between atoms: _12  and  _13
REMARK    6  A    between atoms: _15  and  _17
REMARK    7  A    between atoms: _17  and  _18
REMARK    8  A    between atoms: _17  and  _20
REMARK    9  A    between atoms: _20  and  _21
REMARK   10  A    between atoms: _21  and  _22
REMARK   11  A    between atoms: _22  and  _23
REMARK   12  A    between atoms: _23  and  _24
REMARK   13  A    between atoms: _28  and  _30
REMARK   14  A    between atoms: _30  and  _31
REMARK   15  A    between atoms: _30  and  _33
REMARK   16  A    between atoms: _33  and  _34
REMARK   17  A    between atoms: _37  and  _39
REMARK   18  A    between atoms: _39  and  _40
REMARK   19  A    between atoms: _39  and  _42
REMARK   20  A    between atoms: _42  and  _43
REMARK   21  A    between atoms: _46  and  _48
REMARK   22  A    between atoms: _48  and  _49
REMARK   23  A    between atoms: _48  and  _51
REMARK   24  A    between atoms: _51  and  _52
REMARK   25  A    between atoms: _57  and  _59
REMARK   26  A    between atoms: _59  and  _60
REMARK   27  A    between atoms: _59  and  _62
REMARK   28  A    between atoms: _62  and  _63
REMARK   29  A    between atoms: _69  and  _71
REMARK   30  A    between atoms: _71  and  _72
REMARK   31  A    between atoms: _71  and  _74
REMARK   32  A    between atoms: _74  and  _75
REMARK   33  A    between atoms: _77  and  _79
REMARK   34  A    between atoms: _79  and  _80
REMARK   35  A    between atoms: _82  and  _84
REMARK   36  A    between atoms: _84  and  _85
REMARK   37  A    between atoms: _84  and  _87
REMARK   38  A    between atoms: _87  and  _88
REMARK   39  A    between atoms: _88  and  _89
REMARK   40  A    between atoms: _92  and  _94
REMARK   41  A    between atoms: _94  and  _95
REMARK   42  A    between atoms: _94  and  _97
REMARK   43  A    between atoms: _97  and  _98
REMARK   44  A    between atoms: _104  and  _105
REMARK   45  A    between atoms: _110  and  _112
REMARK   46  A    between atoms: _112  and  _113
REMARK   47  A    between atoms: _112  and  _115
REMARK   48  A    between atoms: _115  and  _116
REMARK   49  A    between atoms: _119  and  _121
REMARK   50  A    between atoms: _121  and  _122
REMARK   51  A    between atoms: _125  and  _127
REMARK   52  A    between atoms: _127  and  _128
REMARK   53  A    between atoms: _127  and  _130
REMARK   54  A    between atoms: _130  and  _131
REMARK   55  A    between atoms: _131  and  _132
REMARK   56  A    between atoms: _132  and  _133
REMARK   57  A    between atoms: _142  and  _144
REMARK   58  A    between atoms: _144  and  _145
REMARK   59  A    between atoms: _144  and  _147
REMARK   60  A    between atoms: _147  and  _148
REMARK   61  A    between atoms: _148  and  _149
REMARK   62  A    between atoms: _151  and  _153
REMARK   63  A    between atoms: _153  and  _154
REMARK   64  A    between atoms: _153  and  _156
REMARK   65  A    between atoms: _156  and  _157
REMARK   66  A    between atoms: _167  and  _169
REMARK   67  A    between atoms: _169  and  _170
REMARK   68  A    between atoms: _169  and  _172
REMARK   69  A    between atoms: _172  and  _173
REMARK   70  A    between atoms: _176  and  _178
REMARK   71  A    between atoms: _178  and  _179
REMARK   72  A    between atoms: _178  and  _181
REMARK   73  A    between atoms: _181  and  _182
REMARK   74  A    between atoms: _187  and  _189
REMARK   75  A    between atoms: _189  and  _190
REMARK   76  A    between atoms: _189  and  _192
REMARK   77  A    between atoms: _192  and  _193
REMARK   78  A    between atoms: _198  and  _200
REMARK   79  A    between atoms: _200  and  _201
REMARK   80  A    between atoms: _200  and  _203
REMARK   81  A    between atoms: _203  and  _204
REMARK   82  A    between atoms: _207  and  _209
REMARK   83  A    between atoms: _209  and  _210
REMARK   84  A    between atoms: _213  and  _215
REMARK   85  A    between atoms: _215  and  _216
REMARK   86  A    between atoms: _215  and  _218
REMARK   87  A    between atoms: _218  and  _219
REMARK   88  A    between atoms: _219  and  _220
REMARK   89  A    between atoms: _222  and  _224
REMARK   90  A    between atoms: _224  and  _225
REMARK   91  A    between atoms: _224  and  _227
REMARK   92  A    between atoms: _230  and  _232
REMARK   93  A    between atoms: _232  and  _233
REMARK   94  A    between atoms: _232  and  _235
REMARK   95  A    between atoms: _235  and  _236
REMARK   96  A    between atoms: _239  and  _241
REMARK   97  A    between atoms: _241  and  _242
REMARK   98  A    between atoms: _241  and  _244
REMARK   99  A    between atoms: _244  and  _245
REMARK  100  A    between atoms: _248  and  _250
REMARK  101  A    between atoms: _250  and  _251
REMARK  102  A    between atoms: _250  and  _253
REMARK  103  A    between atoms: _253  and  _254
REMARK  104  A    between atoms: _259  and  _261
REMARK  105  A    between atoms: _261  and  _262
REMARK  106  A    between atoms: _261  and  _264
REMARK  107  A    between atoms: _264  and  _265
REMARK  108  A    between atoms: _270  and  _271
REMARK                            x       y       z     vdW  Elec       q    Type
REMARK                         _______ _______ _______ _____ _____    ______ ____
ROOT
ATOM      1  C   ASN A   2      -3.894  24.171  -9.507  0.00  0.00    +0.241 C 
ATOM      2  O   ASN A   2      -4.384  24.875  -8.609  0.00  0.00    -0.273 OA
ATOM      3  N   ASP A   3      -2.925  24.564 -10.324  0.00  0.00    -0.297 N 
ATOM      4  H   ASP A   3      -2.624  23.940 -11.100  0.00  0.00    +0.150 HD
ENDROOT
BRANCH   1   5
ATOM      5  CA  ASN A   2      -4.428  22.780  -9.767  0.00  0.00    +0.158 C 
BRANCH   5   7
ATOM      6  C   ASN A   1      -5.477  21.031  -8.409  0.00  0.00    +0.239 C 
ATOM      7  N   ASN A   2      -5.355  22.341  -8.711  0.00  0.00    -0.297 N 
ATOM      8  H   ASN A   2      -5.920  23.045  -8.194  0.00  0.00    +0.150 HD
ATOM      9  O   ASN A   1      -5.012  20.152  -9.113  0.00  0.00    -0.274 OA
BRANCH   6  10
ATOM     10  CA  ASN A   1      -6.315  20.623  -7.183  0.00  0.00    +0.154 C 
BRANCH  10  11
ATOM     11  N   ASN A   1      -6.583  21.732  -6.293  0.00  0.00    -0.238 NA
ATOM     12  H   ASN A   1      -7.552  22.102  -6.215  0.00  0.00    +0.142 HD
ENDBRANCH  10  11
BRANCH  10  13
ATOM     13  CB  ASN A   1      -7.603  20.005  -7.749  0.00  0.00    +0.111 C 
BRANCH  13  14
ATOM     14  CG  ASN A   1      -8.432  19.218  -6.746  0.00  0.00    +0.221 C 
ATOM     15  ND2 ASN A   1      -7.962  19.007  -5.500  0.00  0.00    -0.329 N 
ATOM     16 HD21 ASN A   1      -8.529  18.467  -4.815  0.00  0.00    +0.145 HD
ATOM     17 HD22 ASN A   1      -7.033  19.384  -5.224  0.00  0.00    +0.145 HD
ATOM     18  OD1 ASN A   1      -9.515  18.801  -7.129  0.00  0.00    -0.275 OA
ENDBRANCH  13  14
ENDBRANCH  10  13
ENDBRANCH   6  10
ENDBRANCH   5   7
BRANCH   5  19
ATOM     19  CB  ASN A   2      -5.018  22.680 -11.198  0.00  0.00    +0.114 C 
BRANCH  19  20
ATOM     20  CG  ASN A   2      -6.071  23.758 -11.526  0.00  0.00    +0.222 C 
ATOM     21  OD1 ASN A   2      -6.532  24.517 -10.664  0.00  0.00    -0.275 OA
ATOM     22  ND2 ASN A   2      -6.467  23.792 -12.802  0.00  0.00    -0.329 N 
ATOM     23 HD21 ASN A   2      -7.190  24.476 -13.104  0.00  0.00    +0.145 HD
ATOM     24 HD22 ASN A   2      -6.052  23.135 -13.493  0.00  0.00    +0.145 HD
ENDBRANCH  19  20
ENDBRANCH   5  19
ENDBRANCH   1   5
BRANCH   3  25
ATOM     25  CA  ASP A   3      -2.280  25.849 -10.150  0.00  0.00    +0.160 C 
BRANCH  25  26
ATOM     26  C   ASP A   3      -3.210  26.999 -10.469  0.00  0.00    +0.241 C 
ATOM     27  O   ASP A   3      -3.145  28.007  -9.788  0.00  0.00    -0.273 OA
ATOM     28  N   ALA A   4      -4.059  26.847 -11.491  0.00  0.00    -0.297 N 
ATOM     29  H   ALA A   4      -4.044  25.963 -12.039  0.00  0.00    +0.150 HD
BRANCH  28  30
ATOM     30  CA  ALA A   4      -5.017  27.910 -11.856  0.00  0.00    +0.149 C 
ATOM     31  CB  ALA A   4      -5.923  27.450 -13.002  0.00  0.00    +0.031 C 
BRANCH  30  32
ATOM     32  C   ALA A   4      -5.838  28.295 -10.615  0.00  0.00    +0.241 C 
ATOM     33  N   MET A   5      -6.404  27.298  -9.940  0.00  0.00    -0.298 N 
ATOM     34  H   MET A   5      -6.252  26.311 -10.230  0.00  0.00    +0.150 HD
ATOM     35  O   ALA A   4      -5.920  29.465 -10.241  0.00  0.00    -0.273 OA
BRANCH  33  36
ATOM     36  CA  MET A   5      -7.242  27.610  -8.786  0.00  0.00    +0.138 C 
BRANCH  36  37
ATOM     37  C   MET A   5      -6.393  28.148  -7.640  0.00  0.00    +0.227 C 
ATOM     38  O   MET A   5      -6.805  29.087  -6.958  0.00  0.00    -0.286 OA
ENDBRANCH  36  37
BRANCH  36  39
ATOM     39  CB  MET A   5      -8.094  26.418  -8.362  0.00  0.00    +0.039 C 
BRANCH  39  40
ATOM     40  CG  MET A   5      -9.145  26.074  -9.430  0.00  0.00    +0.060 C 
BRANCH  40  41
ATOM     41  SD  MET A   5     -10.201  24.689  -8.987  0.00  0.00    -0.139 S 
ATOM     42  CE  MET A   5      -8.991  23.397  -8.808  0.00  0.00    +0.069 C 
ENDBRANCH  40  41
ENDBRANCH  39  40
ENDBRANCH  36  39
ENDBRANCH  33  36
ENDBRANCH  30  32
ENDBRANCH  28  30
ENDBRANCH  25  26
BRANCH  25  43
ATOM     43  CB  ASP A   3      -1.036  25.939 -11.022  0.00  0.00    +0.143 C 
BRANCH  43  44
ATOM     44  CG  ASP A   3       0.142  25.137 -10.459  0.00  0.00    +0.367 C 
ATOM     45  OD2 ASP A   3       0.139  24.728  -9.281  0.00  0.00    -0.246 OA
ATOM     46  OD1 ASP A   3       1.100  24.925 -11.222  0.00  0.00    -0.246 OA
ENDBRANCH  43  44
ENDBRANCH  25  43
ENDBRANCH   3  25
TORSDOF 19
REMARK  Name = ../refined-set-2016/2qw1/2qw1_pocket.pdb
REMARK  108 active torsions:
REMARK  status: ('A' for Active; 'I' for Inactive)
REMARK    1  A    between atoms: _1  and  _3
REMARK    2  A    between atoms: _3  and  _4
REMARK    3  A    between atoms: _3  and  _6
REMARK    4  A    between atoms: _6  and  _7
REMARK    5  A    between atoms: _12  and  _13
REMARK    6  A    between atoms: _15  and  _17
REMARK    7  A    between atoms: _17  and  _18
REMARK    8  A    between atoms: _17  and  _20
REMARK    9  A    between atoms: _20  and  _21
REMARK   10  A    between atoms: _21  and  _22
REMARK   11  A    between atoms: _22  and  _23
REMARK   12  A    between atoms: _23  and  _24
REMARK   13  A    between atoms: _28  and  _30
REMARK   14  A    between atoms: _30  and  _31
REMARK   15  A    between atoms: _30  and  _33
REMARK   16  A    between atoms: _33  and  _34
REMARK   17  A    between atoms: _37  and  _39
REMARK   18  A    between atoms: _39  and  _40
REMARK   19  A    between atoms: _39  and  _42
REMARK   20  A    between atoms: _42  and  _43
REMARK   21  A    between atoms: _46  and  _48
REMARK   22  A    between atoms: _48  and  _49
REMARK   23  A    between atoms: _48  and  _51
REMARK   24  A    between atoms: _51  and  _52
REMARK   25  A    between atoms: _57  and  _59
REMARK   26  A    between atoms: _59  and  _60
REMARK   27  A    between atoms: _59  and  _62
REMARK   28  A    between atoms: _62  and  _63
REMARK   29  A    between atoms: _69  and  _71
REMARK   30  A    between atoms: _71  and  _72
REMARK   31  A    between atoms: _71  and  _74
REMARK   32  A    between atoms: _74  and  _75
REMARK   33  A    between atoms: _77  and  _79
REMARK   34  A    between atoms: _79  and  _80
REMARK   35  A    between atoms: _82  and  _84
REMARK   36  A    between atoms: _84  and  _85
REMARK   37  A    between atoms: _84  and  _87
REMARK   38  A    between atoms: _87  and  _88
REMARK   39  A    between atoms: _88  and  _89
REMARK   40  A    between atoms: _92  and  _94
REMARK   41  A    between atoms: _94  and  _95
REMARK   42  A    between atoms: _94  and  _97
REMARK   43  A    between atoms: _97  and  _98
REMARK   44  A    between atoms: _104  and  _105
REMARK   45  A    between atoms: _110  and  _112
REMARK   46  A    between atoms: _112  and  _113
REMARK   47  A    between atoms: _112  and  _115
REMARK   48  A    between atoms: _115  and  _116
REMARK   49  A    between atoms: _119  and  _121
REMARK   50  A    between atoms: _121  and  _122
REMARK   51  A    between atoms: _125  and  _127
REMARK   52  A    between atoms: _127  and  _128
REMARK   53  A    between atoms: _127  and  _130
REMARK   54  A    between atoms: _130  and  _131
REMARK   55  A    between atoms: _131  and  _132
REMARK   56  A    between atoms: _132  and  _133
REMARK   57  A    between atoms: _142  and  _144
REMARK   58  A    between atoms: _144  and  _145
REMARK   59  A    between atoms: _144  and  _147
REMARK   60  A    between atoms: _147  and  _148
REMARK   61  A    between atoms: _148  and  _149
REMARK   62  A    between atoms: _151  and  _153
REMARK   63  A    between atoms: _153  and  _154
REMARK   64  A    between atoms: _153  and  _156
REMARK   65  A    between atoms: _156  and  _157
REMARK   66  A    between atoms: _167  and  _169
REMARK   67  A    between atoms: _169  and  _170
REMARK   68  A    between atoms: _169  and  _172
REMARK   69  A    between atoms: _172  and  _173
REMARK   70  A    between atoms: _176  and  _178
REMARK   71  A    between atoms: _178  and  _179
REMARK   72  A    between atoms: _178  and  _181
REMARK   73  A    between atoms: _181  and  _182
REMARK   74  A    between atoms: _187  and  _189
REMARK   75  A    between atoms: _189  and  _190
REMARK   76  A    between atoms: _189  and  _192
REMARK   77  A    between atoms: _192  and  _193
REMARK   78  A    between atoms: _198  and  _200
REMARK   79  A    between atoms: _200  and  _201
REMARK   80  A    between atoms: _200  and  _203
REMARK   81  A    between atoms: _203  and  _204
REMARK   82  A    between atoms: _207  and  _209
REMARK   83  A    between atoms: _209  and  _210
REMARK   84  A    between atoms: _213  and  _215
REMARK   85  A    between atoms: _215  and  _216
REMARK   86  A    between atoms: _215  and  _218
REMARK   87  A    between atoms: _218  and  _219
REMARK   88  A    between atoms: _219  and  _220
REMARK   89  A    between atoms: _222  and  _224
REMARK   90  A    between atoms: _224  and  _225
REMARK   91  A    between atoms: _224  and  _227
REMARK   92  A    between atoms: _230  and  _232
REMARK   93  A    between atoms: _232  and  _233
REMARK   94  A    between atoms: _232  and  _235
REMARK   95  A    between atoms: _235  and  _236
REMARK   96  A    between atoms: _239  and  _241
REMARK   97  A    between atoms: _241  and  _242
REMARK   98  A    between atoms: _241  and  _244
REMARK   99  A    between atoms: _244  and  _245
REMARK  100  A    between atoms: _248  and  _250
REMARK  101  A    between atoms: _250  and  _251
REMARK  102  A    between atoms: _250  and  _253
REMARK  103  A    between atoms: _253  and  _254
REMARK  104  A    between atoms: _259  and  _261
REMARK  105  A    between atoms: _261  and  _262
REMARK  106  A    between atoms: _261  and  _264
REMARK  107  A    between atoms: _264  and  _265
REMARK  108  A    between atoms: _270  and  _271
REMARK                            x       y       z     vdW  Elec       q    Type
REMARK                         _______ _______ _______ _____ _____    ______ ____
ROOT
ATOM      1  C   VAL A   1      -0.491  21.630 -10.338  0.00  0.00    +0.238 C 
ATOM      2  O   VAL A   1      -1.416  22.230 -10.836  0.00  0.00    -0.274 OA
ATOM      3  N   ASP A   2       0.643  21.323 -10.985  0.00  0.00    -0.298 N 
ATOM      4  H   ASP A   2       1.438  20.978 -10.410  0.00  0.00    +0.150 HD
ENDROOT
BRANCH   1   5
ATOM      5  CA  VAL A   1      -0.605  21.175  -8.887  0.00  0.00    +0.145 C 
BRANCH   5   6
ATOM      6  CB  VAL A   1      -1.527  19.910  -8.824  0.00  0.00    +0.025 C 
ATOM      7  CG2 VAL A   1      -1.586  19.322  -7.376  0.00  0.00    +0.002 C 
ATOM      8  CG1 VAL A   1      -1.050  18.830  -9.831  0.00  0.00    +0.002 C 
ENDBRANCH   5   6
BRANCH   5   9
ATOM      9  N   VAL A   1      -1.115  22.286  -8.077  0.00  0.00    -0.238 NA
ATOM     10  H   VAL A   1      -1.811  22.927  -8.508  0.00  0.00    +0.142 HD
ENDBRANCH   5   9
ENDBRANCH   1   5
BRANCH   3  11
ATOM     11  CA  ASP A   2       0.867  21.432 -12.460  0.00  0.00    +0.148 C 
BRANCH  11  12
ATOM     12  C   ASP A   2       2.261  21.947 -12.755  0.00  0.00    +0.227 C 
ATOM     13  O   ASP A   2       2.825  21.631 -13.809  0.00  0.00    -0.286 OA
ENDBRANCH  11  12
BRANCH  11  14
ATOM     14  CB  ASP A   2      -0.163  22.322 -13.218  0.00  0.00    +0.142 C 
BRANCH  14  15
ATOM     15  CG  ASP A   2      -1.529  21.653 -13.396  0.00  0.00    +0.367 C 
ATOM     16  OD2 ASP A   2      -1.624  20.414 -13.390  0.00  0.00    -0.246 OA
ATOM     17  OD1 ASP A   2      -2.524  22.373 -13.562  0.00  0.00    -0.246 OA
ENDBRANCH  14  15
ENDBRANCH  11  14
ENDBRANCH   3  11
TORSDOF 7
REMARK  Name = ../refined-set-2016/2qw1/2qw1_pocket.pdb
REMARK  108 active torsions:
REMARK  status: ('A' for Active; 'I' for Inactive)
REMARK    1  A    between atoms: _1  and  _3
REMARK    2  A    between atoms: _3  and  _4
REMARK    3  A    between atoms: _3  and  _6
REMARK    4  A    between atoms: _6  and  _7
REMARK    5  A    between atoms: _12  and  _13
REMARK    6  A    between atoms: _15  and  _17
REMARK    7  A    between atoms: _17  and  _18
REMARK    8  A    between atoms: _17  and  _20
REMARK    9  A    between atoms: _20  and  _21
REMARK   10  A    between atoms: _21  and  _22
REMARK   11  A    between atoms: _22  and  _23
REMARK   12  A    between atoms: _23  and  _24
REMARK   13  A    between atoms: _28  and  _30
REMARK   14  A    between atoms: _30  and  _31
REMARK   15  A    between atoms: _30  and  _33
REMARK   16  A    between atoms: _33  and  _34
REMARK   17  A    between atoms: _37  and  _39
REMARK   18  A    between atoms: _39  and  _40
REMARK   19  A    between atoms: _39  and  _42
REMARK   20  A    between atoms: _42  and  _43
REMARK   21  A    between atoms: _46  and  _48
REMARK   22  A    between atoms: _48  and  _49
REMARK   23  A    between atoms: _48  and  _51
REMARK   24  A    between atoms: _51  and  _52
REMARK   25  A    between atoms: _57  and  _59
REMARK   26  A    between atoms: _59  and  _60
REMARK   27  A    between atoms: _59  and  _62
REMARK   28  A    between atoms: _62  and  _63
REMARK   29  A    between atoms: _69  and  _71
REMARK   30  A    between atoms: _71  and  _72
REMARK   31  A    between atoms: _71  and  _74
REMARK   32  A    between atoms: _74  and  _75
REMARK   33  A    between atoms: _77  and  _79
REMARK   34  A    between atoms: _79  and  _80
REMARK   35  A    between atoms: _82  and  _84
REMARK   36  A    between atoms: _84  and  _85
REMARK   37  A    between atoms: _84  and  _87
REMARK   38  A    between atoms: _87  and  _88
REMARK   39  A    between atoms: _88  and  _89
REMARK   40  A    between atoms: _92  and  _94
REMARK   41  A    between atoms: _94  and  _95
REMARK   42  A    between atoms: _94  and  _97
REMARK   43  A    between atoms: _97  and  _98
REMARK   44  A    between atoms: _104  and  _105
REMARK   45  A    between atoms: _110  and  _112
REMARK   46  A    between atoms: _112  and  _113
REMARK   47  A    between atoms: _112  and  _115
REMARK   48  A    between atoms: _115  and  _116
REMARK   49  A    between atoms: _119  and  _121
REMARK   50  A    between atoms: _121  and  _122
REMARK   51  A    between atoms: _125  and  _127
REMARK   52  A    between atoms: _127  and  _128
REMARK   53  A    between atoms: _127  and  _130
REMARK   54  A    between atoms: _130  and  _131
REMARK   55  A    between atoms: _131  and  _132
REMARK   56  A    between atoms: _132  and  _133
REMARK   57  A    between atoms: _142  and  _144
REMARK   58  A    between atoms: _144  and  _145
REMARK   59  A    between atoms: _144  and  _147
REMARK   60  A    between atoms: _147  and  _148
REMARK   61  A    between atoms: _148  and  _149
REMARK   62  A    between atoms: _151  and  _153
REMARK   63  A    between atoms: _153  and  _154
REMARK   64  A    between atoms: _153  and  _156
REMARK   65  A    between atoms: _156  and  _157
REMARK   66  A    between atoms: _167  and  _169
REMARK   67  A    between atoms: _169  and  _170
REMARK   68  A    between atoms: _169  and  _172
REMARK   69  A    between atoms: _172  and  _173
REMARK   70  A    between atoms: _176  and  _178
REMARK   71  A    between atoms: _178  and  _179
REMARK   72  A    between atoms: _178  and  _181
REMARK   73  A    between atoms: _181  and  _182
REMARK   74  A    between atoms: _187  and  _189
REMARK   75  A    between atoms: _189  and  _190
REMARK   76  A    between atoms: _189  and  _192
REMARK   77  A    between atoms: _192  and  _193
REMARK   78  A    between atoms: _198  and  _200
REMARK   79  A    between atoms: _200  and  _201
REMARK   80  A    between atoms: _200  and  _203
REMARK   81  A    between atoms: _203  and  _204
REMARK   82  A    between atoms: _207  and  _209
REMARK   83  A    between atoms: _209  and  _210
REMARK   84  A    between atoms: _213  and  _215
REMARK   85  A    between atoms: _215  and  _216
REMARK   86  A    between atoms: _215  and  _218
REMARK   87  A    between atoms: _218  and  _219
REMARK   88  A    between atoms: _219  and  _220
REMARK   89  A    between atoms: _222  and  _224
REMARK   90  A    between atoms: _224  and  _225
REMARK   91  A    between atoms: _224  and  _227
REMARK   92  A    between atoms: _230  and  _232
REMARK   93  A    between atoms: _232  and  _233
REMARK   94  A    between atoms: _232  and  _235
REMARK   95  A    between atoms: _235  and  _236
REMARK   96  A    between atoms: _239  and  _241
REMARK   97  A    between atoms: _241  and  _242
REMARK   98  A    between atoms: _241  and  _244
REMARK   99  A    between atoms: _244  and  _245
REMARK  100  A    between atoms: _248  and  _250
REMARK  101  A    between atoms: _250  and  _251
REMARK  102  A    between atoms: _250  and  _253
REMARK  103  A    between atoms: _253  and  _254
REMARK  104  A    between atoms: _259  and  _261
REMARK  105  A    between atoms: _261  and  _262
REMARK  106  A    between atoms: _261  and  _264
REMARK  107  A    between atoms: _264  and  _265
REMARK  108  A    between atoms: _270  and  _271
REMARK                            x       y       z     vdW  Elec       q    Type
REMARK                         _______ _______ _______ _____ _____    ______ ____
ROOT
ATOM      1  CA  LEU A   1       2.781  25.987 -14.637  0.00  0.00    +0.133 C 
ENDROOT
BRANCH   1   2
ATOM      2  N   LEU A   1       2.862  25.016 -13.529  0.00  0.00    -0.239 NA
ATOM      3  H   LEU A   1       2.038  24.857 -12.914  0.00  0.00    +0.142 HD
ENDBRANCH   1   2
BRANCH   1   4
ATOM      4  C   LEU A   1       3.849  27.074 -14.472  0.00  0.00    +0.224 C 
ATOM      5  O   LEU A   1       4.146  27.493 -13.348  0.00  0.00    -0.287 OA
ENDBRANCH   1   4
BRANCH   1   6
ATOM      6  CB  LEU A   1       1.416  26.683 -14.698  0.00  0.00    +0.025 C 
BRANCH   6   7
ATOM      7  CG  LEU A   1       0.159  25.835 -14.908  0.00  0.00    +0.002 C 
ATOM      8  CD2 LEU A   1      -1.073  26.785 -14.963  0.00  0.00    +0.000 C 
ATOM      9  CD1 LEU A   1       0.272  24.970 -16.148  0.00  0.00    +0.000 C 
ENDBRANCH   6   7
ENDBRANCH   1   6
TORSDOF 4
REMARK  Name = ../refined-set-2016/2qw1/2qw1_pocket.pdb
REMARK  108 active torsions:
REMARK  status: ('A' for Active; 'I' for Inactive)
REMARK    1  A    between atoms: _1  and  _3
REMARK    2  A    between atoms: _3  and  _4
REMARK    3  A    between atoms: _3  and  _6
REMARK    4  A    between atoms: _6  and  _7
REMARK    5  A    between atoms: _12  and  _13
REMARK    6  A    between atoms: _15  and  _17
REMARK    7  A    between atoms: _17  and  _18
REMARK    8  A    between atoms: _17  and  _20
REMARK    9  A    between atoms: _20  and  _21
REMARK   10  A    between atoms: _21  and  _22
REMARK   11  A    between atoms: _22  and  _23
REMARK   12  A    between atoms: _23  and  _24
REMARK   13  A    between atoms: _28  and  _30
REMARK   14  A    between atoms: _30  and  _31
REMARK   15  A    between atoms: _30  and  _33
REMARK   16  A    between atoms: _33  and  _34
REMARK   17  A    between atoms: _37  and  _39
REMARK   18  A    between atoms: _39  and  _40
REMARK   19  A    between atoms: _39  and  _42
REMARK   20  A    between atoms: _42  and  _43
REMARK   21  A    between atoms: _46  and  _48
REMARK   22  A    between atoms: _48  and  _49
REMARK   23  A    between atoms: _48  and  _51
REMARK   24  A    between atoms: _51  and  _52
REMARK   25  A    between atoms: _57  and  _59
REMARK   26  A    between atoms: _59  and  _60
REMARK   27  A    between atoms: _59  and  _62
REMARK   28  A    between atoms: _62  and  _63
REMARK   29  A    between atoms: _69  and  _71
REMARK   30  A    between atoms: _71  and  _72
REMARK   31  A    between atoms: _71  and  _74
REMARK   32  A    between atoms: _74  and  _75
REMARK   33  A    between atoms: _77  and  _79
REMARK   34  A    between atoms: _79  and  _80
REMARK   35  A    between atoms: _82  and  _84
REMARK   36  A    between atoms: _84  and  _85
REMARK   37  A    between atoms: _84  and  _87
REMARK   38  A    between atoms: _87  and  _88
REMARK   39  A    between atoms: _88  and  _89
REMARK   40  A    between atoms: _92  and  _94
REMARK   41  A    between atoms: _94  and  _95
REMARK   42  A    between atoms: _94  and  _97
REMARK   43  A    between atoms: _97  and  _98
REMARK   44  A    between atoms: _104  and  _105
REMARK   45  A    between atoms: _110  and  _112
REMARK   46  A    between atoms: _112  and  _113
REMARK   47  A    between atoms: _112  and  _115
REMARK   48  A    between atoms: _115  and  _116
REMARK   49  A    between atoms: _119  and  _121
REMARK   50  A    between atoms: _121  and  _122
REMARK   51  A    between atoms: _125  and  _127
REMARK   52  A    between atoms: _127  and  _128
REMARK   53  A    between atoms: _127  and  _130
REMARK   54  A    between atoms: _130  and  _131
REMARK   55  A    between atoms: _131  and  _132
REMARK   56  A    between atoms: _132  and  _133
REMARK   57  A    between atoms: _142  and  _144
REMARK   58  A    between atoms: _144  and  _145
REMARK   59  A    between atoms: _144  and  _147
REMARK   60  A    between atoms: _147  and  _148
REMARK   61  A    between atoms: _148  and  _149
REMARK   62  A    between atoms: _151  and  _153
REMARK   63  A    between atoms: _153  and  _154
REMARK   64  A    between atoms: _153  and  _156
REMARK   65  A    between atoms: _156  and  _157
REMARK   66  A    between atoms: _167  and  _169
REMARK   67  A    between atoms: _169  and  _170
REMARK   68  A    between atoms: _169  and  _172
REMARK   69  A    between atoms: _172  and  _173
REMARK   70  A    between atoms: _176  and  _178
REMARK   71  A    between atoms: _178  and  _179
REMARK   72  A    between atoms: _178  and  _181
REMARK   73  A    between atoms: _181  and  _182
REMARK   74  A    between atoms: _187  and  _189
REMARK   75  A    between atoms: _189  and  _190
REMARK   76  A    between atoms: _189  and  _192
REMARK   77  A    between atoms: _192  and  _193
REMARK   78  A    between atoms: _198  and  _200
REMARK   79  A    between atoms: _200  and  _201
REMARK   80  A    between atoms: _200  and  _203
REMARK   81  A    between atoms: _203  and  _204
REMARK   82  A    between atoms: _207  and  _209
REMARK   83  A    between atoms: _209  and  _210
REMARK   84  A    between atoms: _213  and  _215
REMARK   85  A    between atoms: _215  and  _216
REMARK   86  A    between atoms: _215  and  _218
REMARK   87  A    between atoms: _218  and  _219
REMARK   88  A    between atoms: _219  and  _220
REMARK   89  A    between atoms: _222  and  _224
REMARK   90  A    between atoms: _224  and  _225
REMARK   91  A    between atoms: _224  and  _227
REMARK   92  A    between atoms: _230  and  _232
REMARK   93  A    between atoms: _232  and  _233
REMARK   94  A    between atoms: _232  and  _235
REMARK   95  A    between atoms: _235  and  _236
REMARK   96  A    between atoms: _239  and  _241
REMARK   97  A    between atoms: _241  and  _242
REMARK   98  A    between atoms: _241  and  _244
REMARK   99  A    between atoms: _244  and  _245
REMARK  100  A    between atoms: _248  and  _250
REMARK  101  A    between atoms: _250  and  _251
REMARK  102  A    between atoms: _250  and  _253
REMARK  103  A    between atoms: _253  and  _254
REMARK  104  A    between atoms: _259  and  _261
REMARK  105  A    between atoms: _261  and  _262
REMARK  106  A    between atoms: _261  and  _264
REMARK  107  A    between atoms: _264  and  _265
REMARK  108  A    between atoms: _270  and  _271
REMARK                            x       y       z     vdW  Elec       q    Type
REMARK                         _______ _______ _______ _____ _____    ______ ____
ROOT
ATOM      1  CB  ASN A   1       1.938  15.689 -14.204  0.00  0.00    +0.110 C 
ENDROOT
BRANCH   1   2
ATOM      2  CG  ASN A   1       1.538  14.279 -14.653  0.00  0.00    +0.221 C 
ATOM      3  OD1 ASN A   1       2.346  13.345 -14.605  0.00  0.00    -0.275 OA
ATOM      4  ND2 ASN A   1       0.282  14.124 -15.069  0.00  0.00    -0.329 N 
ATOM      5 HD21 ASN A   1      -0.363  14.940 -15.092  0.00  0.00    +0.145 HD
ATOM      6 HD22 ASN A   1      -0.054  13.187 -15.371  0.00  0.00    +0.145 HD
ENDBRANCH   1   2
BRANCH   1   7
ATOM      7  CA  ASN A   1       3.332  15.723 -13.575  0.00  0.00    +0.142 C 
BRANCH   7   8
ATOM      8  N   ASN A   1       3.592  17.000 -12.907  0.00  0.00    -0.239 NA
ATOM      9  H   ASN A   1       3.129  17.864 -13.254  0.00  0.00    +0.142 HD
ENDBRANCH   7   8
BRANCH   7  10
ATOM     10  C   ASN A   1       4.423  15.635 -14.643  0.00  0.00    +0.225 C 
ATOM     11  O   ASN A   1       4.472  16.444 -15.563  0.00  0.00    -0.287 OA
ENDBRANCH   7  10
ENDBRANCH   1   7
TORSDOF 4
REMARK  Name = ../refined-set-2016/2qw1/2qw1_pocket.pdb
REMARK  108 active torsions:
REMARK  status: ('A' for Active; 'I' for Inactive)
REMARK    1  A    between atoms: _1  and  _3
REMARK    2  A    between atoms: _3  and  _4
REMARK    3  A    between atoms: _3  and  _6
REMARK    4  A    between atoms: _6  and  _7
REMARK    5  A    between atoms: _12  and  _13
REMARK    6  A    between atoms: _15  and  _17
REMARK    7  A    between atoms: _17  and  _18
REMARK    8  A    between atoms: _17  and  _20
REMARK    9  A    between atoms: _20  and  _21
REMARK   10  A    between atoms: _21  and  _22
REMARK   11  A    between atoms: _22  and  _23
REMARK   12  A    between atoms: _23  and  _24
REMARK   13  A    between atoms: _28  and  _30
REMARK   14  A    between atoms: _30  and  _31
REMARK   15  A    between atoms: _30  and  _33
REMARK   16  A    between atoms: _33  and  _34
REMARK   17  A    between atoms: _37  and  _39
REMARK   18  A    between atoms: _39  and  _40
REMARK   19  A    between atoms: _39  and  _42
REMARK   20  A    between atoms: _42  and  _43
REMARK   21  A    between atoms: _46  and  _48
REMARK   22  A    between atoms: _48  and  _49
REMARK   23  A    between atoms: _48  and  _51
REMARK   24  A    between atoms: _51  and  _52
REMARK   25  A    between atoms: _57  and  _59
REMARK   26  A    between atoms: _59  and  _60
REMARK   27  A    between atoms: _59  and  _62
REMARK   28  A    between atoms: _62  and  _63
REMARK   29  A    between atoms: _69  and  _71
REMARK   30  A    between atoms: _71  and  _72
REMARK   31  A    between atoms: _71  and  _74
REMARK   32  A    between atoms: _74  and  _75
REMARK   33  A    between atoms: _77  and  _79
REMARK   34  A    between atoms: _79  and  _80
REMARK   35  A    between atoms: _82  and  _84
REMARK   36  A    between atoms: _84  and  _85
REMARK   37  A    between atoms: _84  and  _87
REMARK   38  A    between atoms: _87  and  _88
REMARK   39  A    between atoms: _88  and  _89
REMARK   40  A    between atoms: _92  and  _94
REMARK   41  A    between atoms: _94  and  _95
REMARK   42  A    between atoms: _94  and  _97
REMARK   43  A    between atoms: _97  and  _98
REMARK   44  A    between atoms: _104  and  _105
REMARK   45  A    between atoms: _110  and  _112
REMARK   46  A    between atoms: _112  and  _113
REMARK   47  A    between atoms: _112  and  _115
REMARK   48  A    between atoms: _115  and  _116
REMARK   49  A    between atoms: _119  and  _121
REMARK   50  A    between atoms: _121  and  _122
REMARK   51  A    between atoms: _125  and  _127
REMARK   52  A    between atoms: _127  and  _128
REMARK   53  A    between atoms: _127  and  _130
REMARK   54  A    between atoms: _130  and  _131
REMARK   55  A    between atoms: _131  and  _132
REMARK   56  A    between atoms: _132  and  _133
REMARK   57  A    between atoms: _142  and  _144
REMARK   58  A    between atoms: _144  and  _145
REMARK   59  A    between atoms: _144  and  _147
REMARK   60  A    between atoms: _147  and  _148
REMARK   61  A    between atoms: _148  and  _149
REMARK   62  A    between atoms: _151  and  _153
REMARK   63  A    between atoms: _153  and  _154
REMARK   64  A    between atoms: _153  and  _156
REMARK   65  A    between atoms: _156  and  _157
REMARK   66  A    between atoms: _167  and  _169
REMARK   67  A    between atoms: _169  and  _170
REMARK   68  A    between atoms: _169  and  _172
REMARK   69  A    between atoms: _172  and  _173
REMARK   70  A    between atoms: _176  and  _178
REMARK   71  A    between atoms: _178  and  _179
REMARK   72  A    between atoms: _178  and  _181
REMARK   73  A    between atoms: _181  and  _182
REMARK   74  A    between atoms: _187  and  _189
REMARK   75  A    between atoms: _189  and  _190
REMARK   76  A    between atoms: _189  and  _192
REMARK   77  A    between atoms: _192  and  _193
REMARK   78  A    between atoms: _198  and  _200
REMARK   79  A    between atoms: _200  and  _201
REMARK   80  A    between atoms: _200  and  _203
REMARK   81  A    between atoms: _203  and  _204
REMARK   82  A    between atoms: _207  and  _209
REMARK   83  A    between atoms: _209  and  _210
REMARK   84  A    between atoms: _213  and  _215
REMARK   85  A    between atoms: _215  and  _216
REMARK   86  A    between atoms: _215  and  _218
REMARK   87  A    between atoms: _218  and  _219
REMARK   88  A    between atoms: _219  and  _220
REMARK   89  A    between atoms: _222  and  _224
REMARK   90  A    between atoms: _224  and  _225
REMARK   91  A    between atoms: _224  and  _227
REMARK   92  A    between atoms: _230  and  _232
REMARK   93  A    between atoms: _232  and  _233
REMARK   94  A    between atoms: _232  and  _235
REMARK   95  A    between atoms: _235  and  _236
REMARK   96  A    between atoms: _239  and  _241
REMARK   97  A    between atoms: _241  and  _242
REMARK   98  A    between atoms: _241  and  _244
REMARK   99  A    between atoms: _244  and  _245
REMARK  100  A    between atoms: _248  and  _250
REMARK  101  A    between atoms: _250  and  _251
REMARK  102  A    between atoms: _250  and  _253
REMARK  103  A    between atoms: _253  and  _254
REMARK  104  A    between atoms: _259  and  _261
REMARK  105  A    between atoms: _261  and  _262
REMARK  106  A    between atoms: _261  and  _264
REMARK  107  A    between atoms: _264  and  _265
REMARK  108  A    between atoms: _270  and  _271
REMARK                            x       y       z     vdW  Elec       q    Type
REMARK                         _______ _______ _______ _____ _____    ______ ____
ROOT
ATOM      1  CG  TYR A   1       2.528  13.021  -9.932  0.00  0.00    -0.020 A 
ATOM      2  CD2 TYR A   1       2.098  11.685  -9.983  0.00  0.00    -0.001 A 
ATOM      3  CE2 TYR A   1       1.063  11.300 -10.820  0.00  0.00    +0.036 A 
ATOM      4  CZ  TYR A   1       0.436  12.253 -11.614  0.00  0.00    +0.134 A 
ATOM      5  CE1 TYR A   1       0.826  13.579 -11.586  0.00  0.00    +0.036 A 
ATOM      6  CD1 TYR A   1       1.872  13.960 -10.735  0.00  0.00    -0.001 A 
ENDROOT
BRANCH   4   7
ATOM      7  OH  TYR A   1      -0.575  11.837 -12.438  0.00  0.00    -0.506 OA
ATOM      8  HH  TYR A   1      -1.408  12.320 -12.206  0.00  0.00    +0.292 HD
ENDBRANCH   4   7
BRANCH   1   9
ATOM      9  CB  TYR A   1       3.646  13.431  -8.994  0.00  0.00    +0.051 C 
BRANCH   9  10
ATOM     10  CA  TYR A   1       5.037  13.215  -9.576  0.00  0.00    +0.137 C 
BRANCH  10  11
ATOM     11  N   TYR A   1       5.342  11.797  -9.677  0.00  0.00    -0.239 NA
ATOM     12  H   TYR A   1       4.678  11.095  -9.292  0.00  0.00    +0.142 HD
ENDBRANCH  10  11
BRANCH  10  13
ATOM     13  C   TYR A   1       6.110  13.826  -8.655  0.00  0.00    +0.224 C 
ATOM     14  O   TYR A   1       6.664  13.143  -7.795  0.00  0.00    -0.287 OA
ENDBRANCH  10  13
ENDBRANCH   9  10
ENDBRANCH   1   9
TORSDOF 5
REMARK  Name = ../refined-set-2016/2qw1/2qw1_pocket.pdb
REMARK  108 active torsions:
REMARK  status: ('A' for Active; 'I' for Inactive)
REMARK    1  A    between atoms: _1  and  _3
REMARK    2  A    between atoms: _3  and  _4
REMARK    3  A    between atoms: _3  and  _6
REMARK    4  A    between atoms: _6  and  _7
REMARK    5  A    between atoms: _12  and  _13
REMARK    6  A    between atoms: _15  and  _17
REMARK    7  A    between atoms: _17  and  _18
REMARK    8  A    between atoms: _17  and  _20
REMARK    9  A    between atoms: _20  and  _21
REMARK   10  A    between atoms: _21  and  _22
REMARK   11  A    between atoms: _22  and  _23
REMARK   12  A    between atoms: _23  and  _24
REMARK   13  A    between atoms: _28  and  _30
REMARK   14  A    between atoms: _30  and  _31
REMARK   15  A    between atoms: _30  and  _33
REMARK   16  A    between atoms: _33  and  _34
REMARK   17  A    between atoms: _37  and  _39
REMARK   18  A    between atoms: _39  and  _40
REMARK   19  A    between atoms: _39  and  _42
REMARK   20  A    between atoms: _42  and  _43
REMARK   21  A    between atoms: _46  and  _48
REMARK   22  A    between atoms: _48  and  _49
REMARK   23  A    between atoms: _48  and  _51
REMARK   24  A    between atoms: _51  and  _52
REMARK   25  A    between atoms: _57  and  _59
REMARK   26  A    between atoms: _59  and  _60
REMARK   27  A    between atoms: _59  and  _62
REMARK   28  A    between atoms: _62  and  _63
REMARK   29  A    between atoms: _69  and  _71
REMARK   30  A    between atoms: _71  and  _72
REMARK   31  A    between atoms: _71  and  _74
REMARK   32  A    between atoms: _74  and  _75
REMARK   33  A    between atoms: _77  and  _79
REMARK   34  A    between atoms: _79  and  _80
REMARK   35  A    between atoms: _82  and  _84
REMARK   36  A    between atoms: _84  and  _85
REMARK   37  A    between atoms: _84  and  _87
REMARK   38  A    between atoms: _87  and  _88
REMARK   39  A    between atoms: _88  and  _89
REMARK   40  A    between atoms: _92  and  _94
REMARK   41  A    between atoms: _94  and  _95
REMARK   42  A    between atoms: _94  and  _97
REMARK   43  A    between atoms: _97  and  _98
REMARK   44  A    between atoms: _104  and  _105
REMARK   45  A    between atoms: _110  and  _112
REMARK   46  A    between atoms: _112  and  _113
REMARK   47  A    between atoms: _112  and  _115
REMARK   48  A    between atoms: _115  and  _116
REMARK   49  A    between atoms: _119  and  _121
REMARK   50  A    between atoms: _121  and  _122
REMARK   51  A    between atoms: _125  and  _127
REMARK   52  A    between atoms: _127  and  _128
REMARK   53  A    between atoms: _127  and  _130
REMARK   54  A    between atoms: _130  and  _131
REMARK   55  A    between atoms: _131  and  _132
REMARK   56  A    between atoms: _132  and  _133
REMARK   57  A    between atoms: _142  and  _144
REMARK   58  A    between atoms: _144  and  _145
REMARK   59  A    between atoms: _144  and  _147
REMARK   60  A    between atoms: _147  and  _148
REMARK   61  A    between atoms: _148  and  _149
REMARK   62  A    between atoms: _151  and  _153
REMARK   63  A    between atoms: _153  and  _154
REMARK   64  A    between atoms: _153  and  _156
REMARK   65  A    between atoms: _156  and  _157
REMARK   66  A    between atoms: _167  and  _169
REMARK   67  A    between atoms: _169  and  _170
REMARK   68  A    between atoms: _169  and  _172
REMARK   69  A    between atoms: _172  and  _173
REMARK   70  A    between atoms: _176  and  _178
REMARK   71  A    between atoms: _178  and  _179
REMARK   72  A    between atoms: _178  and  _181
REMARK   73  A    between atoms: _181  and  _182
REMARK   74  A    between atoms: _187  and  _189
REMARK   75  A    between atoms: _189  and  _190
REMARK   76  A    between atoms: _189  and  _192
REMARK   77  A    between atoms: _192  and  _193
REMARK   78  A    between atoms: _198  and  _200
REMARK   79  A    between atoms: _200  and  _201
REMARK   80  A    between atoms: _200  and  _203
REMARK   81  A    between atoms: _203  and  _204
REMARK   82  A    between atoms: _207  and  _209
REMARK   83  A    between atoms: _209  and  _210
REMARK   84  A    between atoms: _213  and  _215
REMARK   85  A    between atoms: _215  and  _216
REMARK   86  A    between atoms: _215  and  _218
REMARK   87  A    between atoms: _218  and  _219
REMARK   88  A    between atoms: _219  and  _220
REMARK   89  A    between atoms: _222  and  _224
REMARK   90  A    between atoms: _224  and  _225
REMARK   91  A    between atoms: _224  and  _227
REMARK   92  A    between atoms: _230  and  _232
REMARK   93  A    between atoms: _232  and  _233
REMARK   94  A    between atoms: _232  and  _235
REMARK   95  A    between atoms: _235  and  _236
REMARK   96  A    between atoms: _239  and  _241
REMARK   97  A    between atoms: _241  and  _242
REMARK   98  A    between atoms: _241  and  _244
REMARK   99  A    between atoms: _244  and  _245
REMARK  100  A    between atoms: _248  and  _250
REMARK  101  A    between atoms: _250  and  _251
REMARK  102  A    between atoms: _250  and  _253
REMARK  103  A    between atoms: _253  and  _254
REMARK  104  A    between atoms: _259  and  _261
REMARK  105  A    between atoms: _261  and  _262
REMARK  106  A    between atoms: _261  and  _264
REMARK  107  A    between atoms: _264  and  _265
REMARK  108  A    between atoms: _270  and  _271
REMARK                            x       y       z     vdW  Elec       q    Type
REMARK                         _______ _______ _______ _____ _____    ______ ____
ROOT
ATOM      1  O   HOH     1      -1.119  11.646 -16.219  0.00  0.00    +0.000 OA
ENDROOT
TORSDOF 0
REMARK  Name = ../refined-set-2016/2qw1/2qw1_pocket.pdb
REMARK  108 active torsions:
REMARK  status: ('A' for Active; 'I' for Inactive)
REMARK    1  A    between atoms: _1  and  _3
REMARK    2  A    between atoms: _3  and  _4
REMARK    3  A    between atoms: _3  and  _6
REMARK    4  A    between atoms: _6  and  _7
REMARK    5  A    between atoms: _12  and  _13
REMARK    6  A    between atoms: _15  and  _17
REMARK    7  A    between atoms: _17  and  _18
REMARK    8  A    between atoms: _17  and  _20
REMARK    9  A    between atoms: _20  and  _21
REMARK   10  A    between atoms: _21  and  _22
REMARK   11  A    between atoms: _22  and  _23
REMARK   12  A    between atoms: _23  and  _24
REMARK   13  A    between atoms: _28  and  _30
REMARK   14  A    between atoms: _30  and  _31
REMARK   15  A    between atoms: _30  and  _33
REMARK   16  A    between atoms: _33  and  _34
REMARK   17  A    between atoms: _37  and  _39
REMARK   18  A    between atoms: _39  and  _40
REMARK   19  A    between atoms: _39  and  _42
REMARK   20  A    between atoms: _42  and  _43
REMARK   21  A    between atoms: _46  and  _48
REMARK   22  A    between atoms: _48  and  _49
REMARK   23  A    between atoms: _48  and  _51
REMARK   24  A    between atoms: _51  and  _52
REMARK   25  A    between atoms: _57  and  _59
REMARK   26  A    between atoms: _59  and  _60
REMARK   27  A    between atoms: _59  and  _62
REMARK   28  A    between atoms: _62  and  _63
REMARK   29  A    between atoms: _69  and  _71
REMARK   30  A    between atoms: _71  and  _72
REMARK   31  A    between atoms: _71  and  _74
REMARK   32  A    between atoms: _74  and  _75
REMARK   33  A    between atoms: _77  and  _79
REMARK   34  A    between atoms: _79  and  _80
REMARK   35  A    between atoms: _82  and  _84
REMARK   36  A    between atoms: _84  and  _85
REMARK   37  A    between atoms: _84  and  _87
REMARK   38  A    between atoms: _87  and  _88
REMARK   39  A    between atoms: _88  and  _89
REMARK   40  A    between atoms: _92  and  _94
REMARK   41  A    between atoms: _94  and  _95
REMARK   42  A    between atoms: _94  and  _97
REMARK   43  A    between atoms: _97  and  _98
REMARK   44  A    between atoms: _104  and  _105
REMARK   45  A    between atoms: _110  and  _112
REMARK   46  A    between atoms: _112  and  _113
REMARK   47  A    between atoms: _112  and  _115
REMARK   48  A    between atoms: _115  and  _116
REMARK   49  A    between atoms: _119  and  _121
REMARK   50  A    between atoms: _121  and  _122
REMARK   51  A    between atoms: _125  and  _127
REMARK   52  A    between atoms: _127  and  _128
REMARK   53  A    between atoms: _127  and  _130
REMARK   54  A    between atoms: _130  and  _131
REMARK   55  A    between atoms: _131  and  _132
REMARK   56  A    between atoms: _132  and  _133
REMARK   57  A    between atoms: _142  and  _144
REMARK   58  A    between atoms: _144  and  _145
REMARK   59  A    between atoms: _144  and  _147
REMARK   60  A    between atoms: _147  and  _148
REMARK   61  A    between atoms: _148  and  _149
REMARK   62  A    between atoms: _151  and  _153
REMARK   63  A    between atoms: _153  and  _154
REMARK   64  A    between atoms: _153  and  _156
REMARK   65  A    between atoms: _156  and  _157
REMARK   66  A    between atoms: _167  and  _169
REMARK   67  A    between atoms: _169  and  _170
REMARK   68  A    between atoms: _169  and  _172
REMARK   69  A    between atoms: _172  and  _173
REMARK   70  A    between atoms: _176  and  _178
REMARK   71  A    between atoms: _178  and  _179
REMARK   72  A    between atoms: _178  and  _181
REMARK   73  A    between atoms: _181  and  _182
REMARK   74  A    between atoms: _187  and  _189
REMARK   75  A    between atoms: _189  and  _190
REMARK   76  A    between atoms: _189  and  _192
REMARK   77  A    between atoms: _192  and  _193
REMARK   78  A    between atoms: _198  and  _200
REMARK   79  A    between atoms: _200  and  _201
REMARK   80  A    between atoms: _200  and  _203
REMARK   81  A    between atoms: _203  and  _204
REMARK   82  A    between atoms: _207  and  _209
REMARK   83  A    between atoms: _209  and  _210
REMARK   84  A    between atoms: _213  and  _215
REMARK   85  A    between atoms: _215  and  _216
REMARK   86  A    between atoms: _215  and  _218
REMARK   87  A    between atoms: _218  and  _219
REMARK   88  A    between atoms: _219  and  _220
REMARK   89  A    between atoms: _222  and  _224
REMARK   90  A    between atoms: _224  and  _225
REMARK   91  A    between atoms: _224  and  _227
REMARK   92  A    between atoms: _230  and  _232
REMARK   93  A    between atoms: _232  and  _233
REMARK   94  A    between atoms: _232  and  _235
REMARK   95  A    between atoms: _235  and  _236
REMARK   96  A    between atoms: _239  and  _241
REMARK   97  A    between atoms: _241  and  _242
REMARK   98  A    between atoms: _241  and  _244
REMARK   99  A    between atoms: _244  and  _245
REMARK  100  A    between atoms: _248  and  _250
REMARK  101  A    between atoms: _250  and  _251
REMARK  102  A    between atoms: _250  and  _253
REMARK  103  A    between atoms: _253  and  _254
REMARK  104  A    between atoms: _259  and  _261
REMARK  105  A    between atoms: _261  and  _262
REMARK  106  A    between atoms: _261  and  _264
REMARK  107  A    between atoms: _264  and  _265
REMARK  108  A    between atoms: _270  and  _271
REMARK                            x       y       z     vdW  Elec       q    Type
REMARK                         _______ _______ _______ _____ _____    ______ ____
ROOT
ATOM      1  O   HOH     1      -2.493  13.610 -12.871  0.00  0.00    +0.000 OA
ENDROOT
TORSDOF 0
REMARK  Name = ../refined-set-2016/2qw1/2qw1_pocket.pdb
REMARK  108 active torsions:
REMARK  status: ('A' for Active; 'I' for Inactive)
REMARK    1  A    between atoms: _1  and  _3
REMARK    2  A    between atoms: _3  and  _4
REMARK    3  A    between atoms: _3  and  _6
REMARK    4  A    between atoms: _6  and  _7
REMARK    5  A    between atoms: _12  and  _13
REMARK    6  A    between atoms: _15  and  _17
REMARK    7  A    between atoms: _17  and  _18
REMARK    8  A    between atoms: _17  and  _20
REMARK    9  A    between atoms: _20  and  _21
REMARK   10  A    between atoms: _21  and  _22
REMARK   11  A    between atoms: _22  and  _23
REMARK   12  A    between atoms: _23  and  _24
REMARK   13  A    between atoms: _28  and  _30
REMARK   14  A    between atoms: _30  and  _31
REMARK   15  A    between atoms: _30  and  _33
REMARK   16  A    between atoms: _33  and  _34
REMARK   17  A    between atoms: _37  and  _39
REMARK   18  A    between atoms: _39  and  _40
REMARK   19  A    between atoms: _39  and  _42
REMARK   20  A    between atoms: _42  and  _43
REMARK   21  A    between atoms: _46  and  _48
REMARK   22  A    between atoms: _48  and  _49
REMARK   23  A    between atoms: _48  and  _51
REMARK   24  A    between atoms: _51  and  _52
REMARK   25  A    between atoms: _57  and  _59
REMARK   26  A    between atoms: _59  and  _60
REMARK   27  A    between atoms: _59  and  _62
REMARK   28  A    between atoms: _62  and  _63
REMARK   29  A    between atoms: _69  and  _71
REMARK   30  A    between atoms: _71  and  _72
REMARK   31  A    between atoms: _71  and  _74
REMARK   32  A    between atoms: _74  and  _75
REMARK   33  A    between atoms: _77  and  _79
REMARK   34  A    between atoms: _79  and  _80
REMARK   35  A    between atoms: _82  and  _84
REMARK   36  A    between atoms: _84  and  _85
REMARK   37  A    between atoms: _84  and  _87
REMARK   38  A    between atoms: _87  and  _88
REMARK   39  A    between atoms: _88  and  _89
REMARK   40  A    between atoms: _92  and  _94
REMARK   41  A    between atoms: _94  and  _95
REMARK   42  A    between atoms: _94  and  _97
REMARK   43  A    between atoms: _97  and  _98
REMARK   44  A    between atoms: _104  and  _105
REMARK   45  A    between atoms: _110  and  _112
REMARK   46  A    between atoms: _112  and  _113
REMARK   47  A    between atoms: _112  and  _115
REMARK   48  A    between atoms: _115  and  _116
REMARK   49  A    between atoms: _119  and  _121
REMARK   50  A    between atoms: _121  and  _122
REMARK   51  A    between atoms: _125  and  _127
REMARK   52  A    between atoms: _127  and  _128
REMARK   53  A    between atoms: _127  and  _130
REMARK   54  A    between atoms: _130  and  _131
REMARK   55  A    between atoms: _131  and  _132
REMARK   56  A    between atoms: _132  and  _133
REMARK   57  A    between atoms: _142  and  _144
REMARK   58  A    between atoms: _144  and  _145
REMARK   59  A    between atoms: _144  and  _147
REMARK   60  A    between atoms: _147  and  _148
REMARK   61  A    between atoms: _148  and  _149
REMARK   62  A    between atoms: _151  and  _153
REMARK   63  A    between atoms: _153  and  _154
REMARK   64  A    between atoms: _153  and  _156
REMARK   65  A    between atoms: _156  and  _157
REMARK   66  A    between atoms: _167  and  _169
REMARK   67  A    between atoms: _169  and  _170
REMARK   68  A    between atoms: _169  and  _172
REMARK   69  A    between atoms: _172  and  _173
REMARK   70  A    between atoms: _176  and  _178
REMARK   71  A    between atoms: _178  and  _179
REMARK   72  A    between atoms: _178  and  _181
REMARK   73  A    between atoms: _181  and  _182
REMARK   74  A    between atoms: _187  and  _189
REMARK   75  A    between atoms: _189  and  _190
REMARK   76  A    between atoms: _189  and  _192
REMARK   77  A    between atoms: _192  and  _193
REMARK   78  A    between atoms: _198  and  _200
REMARK   79  A    between atoms: _200  and  _201
REMARK   80  A    between atoms: _200  and  _203
REMARK   81  A    between atoms: _203  and  _204
REMARK   82  A    between atoms: _207  and  _209
REMARK   83  A    between atoms: _209  and  _210
REMARK   84  A    between atoms: _213  and  _215
REMARK   85  A    between atoms: _215  and  _216
REMARK   86  A    between atoms: _215  and  _218
REMARK   87  A    between atoms: _218  and  _219
REMARK   88  A    between atoms: _219  and  _220
REMARK   89  A    between atoms: _222  and  _224
REMARK   90  A    between atoms: _224  and  _225
REMARK   91  A    between atoms: _224  and  _227
REMARK   92  A    between atoms: _230  and  _232
REMARK   93  A    between atoms: _232  and  _233
REMARK   94  A    between atoms: _232  and  _235
REMARK   95  A    between atoms: _235  and  _236
REMARK   96  A    between atoms: _239  and  _241
REMARK   97  A    between atoms: _241  and  _242
REMARK   98  A    between atoms: _241  and  _244
REMARK   99  A    between atoms: _244  and  _245
REMARK  100  A    between atoms: _248  and  _250
REMARK  101  A    between atoms: _250  and  _251
REMARK  102  A    between atoms: _250  and  _253
REMARK  103  A    between atoms: _253  and  _254
REMARK  104  A    between atoms: _259  and  _261
REMARK  105  A    between atoms: _261  and  _262
REMARK  106  A    between atoms: _261  and  _264
REMARK  107  A    between atoms: _264  and  _265
REMARK  108  A    between atoms: _270  and  _271
REMARK                            x       y       z     vdW  Elec       q    Type
REMARK                         _______ _______ _______ _____ _____    ______ ____
ROOT
ATOM      1  O   HOH     1     -12.693  18.750 -16.229  0.00  0.00    +0.000 OA
ENDROOT
TORSDOF 0
REMARK  Name = ../refined-set-2016/2qw1/2qw1_pocket.pdb
REMARK  108 active torsions:
REMARK  status: ('A' for Active; 'I' for Inactive)
REMARK    1  A    between atoms: _1  and  _3
REMARK    2  A    between atoms: _3  and  _4
REMARK    3  A    between atoms: _3  and  _6
REMARK    4  A    between atoms: _6  and  _7
REMARK    5  A    between atoms: _12  and  _13
REMARK    6  A    between atoms: _15  and  _17
REMARK    7  A    between atoms: _17  and  _18
REMARK    8  A    between atoms: _17  and  _20
REMARK    9  A    between atoms: _20  and  _21
REMARK   10  A    between atoms: _21  and  _22
REMARK   11  A    between atoms: _22  and  _23
REMARK   12  A    between atoms: _23  and  _24
REMARK   13  A    between atoms: _28  and  _30
REMARK   14  A    between atoms: _30  and  _31
REMARK   15  A    between atoms: _30  and  _33
REMARK   16  A    between atoms: _33  and  _34
REMARK   17  A    between atoms: _37  and  _39
REMARK   18  A    between atoms: _39  and  _40
REMARK   19  A    between atoms: _39  and  _42
REMARK   20  A    between atoms: _42  and  _43
REMARK   21  A    between atoms: _46  and  _48
REMARK   22  A    between atoms: _48  and  _49
REMARK   23  A    between atoms: _48  and  _51
REMARK   24  A    between atoms: _51  and  _52
REMARK   25  A    between atoms: _57  and  _59
REMARK   26  A    between atoms: _59  and  _60
REMARK   27  A    between atoms: _59  and  _62
REMARK   28  A    between atoms: _62  and  _63
REMARK   29  A    between atoms: _69  and  _71
REMARK   30  A    between atoms: _71  and  _72
REMARK   31  A    between atoms: _71  and  _74
REMARK   32  A    between atoms: _74  and  _75
REMARK   33  A    between atoms: _77  and  _79
REMARK   34  A    between atoms: _79  and  _80
REMARK   35  A    between atoms: _82  and  _84
REMARK   36  A    between atoms: _84  and  _85
REMARK   37  A    between atoms: _84  and  _87
REMARK   38  A    between atoms: _87  and  _88
REMARK   39  A    between atoms: _88  and  _89
REMARK   40  A    between atoms: _92  and  _94
REMARK   41  A    between atoms: _94  and  _95
REMARK   42  A    between atoms: _94  and  _97
REMARK   43  A    between atoms: _97  and  _98
REMARK   44  A    between atoms: _104  and  _105
REMARK   45  A    between atoms: _110  and  _112
REMARK   46  A    between atoms: _112  and  _113
REMARK   47  A    between atoms: _112  and  _115
REMARK   48  A    between atoms: _115  and  _116
REMARK   49  A    between atoms: _119  and  _121
REMARK   50  A    between atoms: _121  and  _122
REMARK   51  A    between atoms: _125  and  _127
REMARK   52  A    between atoms: _127  and  _128
REMARK   53  A    between atoms: _127  and  _130
REMARK   54  A    between atoms: _130  and  _131
REMARK   55  A    between atoms: _131  and  _132
REMARK   56  A    between atoms: _132  and  _133
REMARK   57  A    between atoms: _142  and  _144
REMARK   58  A    between atoms: _144  and  _145
REMARK   59  A    between atoms: _144  and  _147
REMARK   60  A    between atoms: _147  and  _148
REMARK   61  A    between atoms: _148  and  _149
REMARK   62  A    between atoms: _151  and  _153
REMARK   63  A    between atoms: _153  and  _154
REMARK   64  A    between atoms: _153  and  _156
REMARK   65  A    between atoms: _156  and  _157
REMARK   66  A    between atoms: _167  and  _169
REMARK   67  A    between atoms: _169  and  _170
REMARK   68  A    between atoms: _169  and  _172
REMARK   69  A    between atoms: _172  and  _173
REMARK   70  A    between atoms: _176  and  _178
REMARK   71  A    between atoms: _178  and  _179
REMARK   72  A    between atoms: _178  and  _181
REMARK   73  A    between atoms: _181  and  _182
REMARK   74  A    between atoms: _187  and  _189
REMARK   75  A    between atoms: _189  and  _190
REMARK   76  A    between atoms: _189  and  _192
REMARK   77  A    between atoms: _192  and  _193
REMARK   78  A    between atoms: _198  and  _200
REMARK   79  A    between atoms: _200  and  _201
REMARK   80  A    between atoms: _200  and  _203
REMARK   81  A    between atoms: _203  and  _204
REMARK   82  A    between atoms: _207  and  _209
REMARK   83  A    between atoms: _209  and  _210
REMARK   84  A    between atoms: _213  and  _215
REMARK   85  A    between atoms: _215  and  _216
REMARK   86  A    between atoms: _215  and  _218
REMARK   87  A    between atoms: _218  and  _219
REMARK   88  A    between atoms: _219  and  _220
REMARK   89  A    between atoms: _222  and  _224
REMARK   90  A    between atoms: _224  and  _225
REMARK   91  A    between atoms: _224  and  _227
REMARK   92  A    between atoms: _230  and  _232
REMARK   93  A    between atoms: _232  and  _233
REMARK   94  A    between atoms: _232  and  _235
REMARK   95  A    between atoms: _235  and  _236
REMARK   96  A    between atoms: _239  and  _241
REMARK   97  A    between atoms: _241  and  _242
REMARK   98  A    between atoms: _241  and  _244
REMARK   99  A    between atoms: _244  and  _245
REMARK  100  A    between atoms: _248  and  _250
REMARK  101  A    between atoms: _250  and  _251
REMARK  102  A    between atoms: _250  and  _253
REMARK  103  A    between atoms: _253  and  _254
REMARK  104  A    between atoms: _259  and  _261
REMARK  105  A    between atoms: _261  and  _262
REMARK  106  A    between atoms: _261  and  _264
REMARK  107  A    between atoms: _264  and  _265
REMARK  108  A    between atoms: _270  and  _271
REMARK                            x       y       z     vdW  Elec       q    Type
REMARK                         _______ _______ _______ _____ _____    ______ ____
ROOT
ATOM      1  O   HOH     1       1.013  19.318 -18.820  0.00  0.00    +0.000 OA
ENDROOT
TORSDOF 0
REMARK  Name = ../refined-set-2016/2qw1/2qw1_pocket.pdb
REMARK  108 active torsions:
REMARK  status: ('A' for Active; 'I' for Inactive)
REMARK    1  A    between atoms: _1  and  _3
REMARK    2  A    between atoms: _3  and  _4
REMARK    3  A    between atoms: _3  and  _6
REMARK    4  A    between atoms: _6  and  _7
REMARK    5  A    between atoms: _12  and  _13
REMARK    6  A    between atoms: _15  and  _17
REMARK    7  A    between atoms: _17  and  _18
REMARK    8  A    between atoms: _17  and  _20
REMARK    9  A    between atoms: _20  and  _21
REMARK   10  A    between atoms: _21  and  _22
REMARK   11  A    between atoms: _22  and  _23
REMARK   12  A    between atoms: _23  and  _24
REMARK   13  A    between atoms: _28  and  _30
REMARK   14  A    between atoms: _30  and  _31
REMARK   15  A    between atoms: _30  and  _33
REMARK   16  A    between atoms: _33  and  _34
REMARK   17  A    between atoms: _37  and  _39
REMARK   18  A    between atoms: _39  and  _40
REMARK   19  A    between atoms: _39  and  _42
REMARK   20  A    between atoms: _42  and  _43
REMARK   21  A    between atoms: _46  and  _48
REMARK   22  A    between atoms: _48  and  _49
REMARK   23  A    between atoms: _48  and  _51
REMARK   24  A    between atoms: _51  and  _52
REMARK   25  A    between atoms: _57  and  _59
REMARK   26  A    between atoms: _59  and  _60
REMARK   27  A    between atoms: _59  and  _62
REMARK   28  A    between atoms: _62  and  _63
REMARK   29  A    between atoms: _69  and  _71
REMARK   30  A    between atoms: _71  and  _72
REMARK   31  A    between atoms: _71  and  _74
REMARK   32  A    between atoms: _74  and  _75
REMARK   33  A    between atoms: _77  and  _79
REMARK   34  A    between atoms: _79  and  _80
REMARK   35  A    between atoms: _82  and  _84
REMARK   36  A    between atoms: _84  and  _85
REMARK   37  A    between atoms: _84  and  _87
REMARK   38  A    between atoms: _87  and  _88
REMARK   39  A    between atoms: _88  and  _89
REMARK   40  A    between atoms: _92  and  _94
REMARK   41  A    between atoms: _94  and  _95
REMARK   42  A    between atoms: _94  and  _97
REMARK   43  A    between atoms: _97  and  _98
REMARK   44  A    between atoms: _104  and  _105
REMARK   45  A    between atoms: _110  and  _112
REMARK   46  A    between atoms: _112  and  _113
REMARK   47  A    between atoms: _112  and  _115
REMARK   48  A    between atoms: _115  and  _116
REMARK   49  A    between atoms: _119  and  _121
REMARK   50  A    between atoms: _121  and  _122
REMARK   51  A    between atoms: _125  and  _127
REMARK   52  A    between atoms: _127  and  _128
REMARK   53  A    between atoms: _127  and  _130
REMARK   54  A    between atoms: _130  and  _131
REMARK   55  A    between atoms: _131  and  _132
REMARK   56  A    between atoms: _132  and  _133
REMARK   57  A    between atoms: _142  and  _144
REMARK   58  A    between atoms: _144  and  _145
REMARK   59  A    between atoms: _144  and  _147
REMARK   60  A    between atoms: _147  and  _148
REMARK   61  A    between atoms: _148  and  _149
REMARK   62  A    between atoms: _151  and  _153
REMARK   63  A    between atoms: _153  and  _154
REMARK   64  A    between atoms: _153  and  _156
REMARK   65  A    between atoms: _156  and  _157
REMARK   66  A    between atoms: _167  and  _169
REMARK   67  A    between atoms: _169  and  _170
REMARK   68  A    between atoms: _169  and  _172
REMARK   69  A    between atoms: _172  and  _173
REMARK   70  A    between atoms: _176  and  _178
REMARK   71  A    between atoms: _178  and  _179
REMARK   72  A    between atoms: _178  and  _181
REMARK   73  A    between atoms: _181  and  _182
REMARK   74  A    between atoms: _187  and  _189
REMARK   75  A    between atoms: _189  and  _190
REMARK   76  A    between atoms: _189  and  _192
REMARK   77  A    between atoms: _192  and  _193
REMARK   78  A    between atoms: _198  and  _200
REMARK   79  A    between atoms: _200  and  _201
REMARK   80  A    between atoms: _200  and  _203
REMARK   81  A    between atoms: _203  and  _204
REMARK   82  A    between atoms: _207  and  _209
REMARK   83  A    between atoms: _209  and  _210
REMARK   84  A    between atoms: _213  and  _215
REMARK   85  A    between atoms: _215  and  _216
REMARK   86  A    between atoms: _215  and  _218
REMARK   87  A    between atoms: _218  and  _219
REMARK   88  A    between atoms: _219  and  _220
REMARK   89  A    between atoms: _222  and  _224
REMARK   90  A    between atoms: _224  and  _225
REMARK   91  A    between atoms: _224  and  _227
REMARK   92  A    between atoms: _230  and  _232
REMARK   93  A    between atoms: _232  and  _233
REMARK   94  A    between atoms: _232  and  _235
REMARK   95  A    between atoms: _235  and  _236
REMARK   96  A    between atoms: _239  and  _241
REMARK   97  A    between atoms: _241  and  _242
REMARK   98  A    between atoms: _241  and  _244
REMARK   99  A    between atoms: _244  and  _245
REMARK  100  A    between atoms: _248  and  _250
REMARK  101  A    between atoms: _250  and  _251
REMARK  102  A    between atoms: _250  and  _253
REMARK  103  A    between atoms: _253  and  _254
REMARK  104  A    between atoms: _259  and  _261
REMARK  105  A    between atoms: _261  and  _262
REMARK  106  A    between atoms: _261  and  _264
REMARK  107  A    between atoms: _264  and  _265
REMARK  108  A    between atoms: _270  and  _271
REMARK                            x       y       z     vdW  Elec       q    Type
REMARK                         _______ _______ _______ _____ _____    ______ ____
ROOT
ATOM      1  O   HOH     1      -0.135  18.564 -14.699  0.00  0.00    +0.000 OA
ENDROOT
TORSDOF 0
REMARK  Name = ../refined-set-2016/2qw1/2qw1_pocket.pdb
REMARK  108 active torsions:
REMARK  status: ('A' for Active; 'I' for Inactive)
REMARK    1  A    between atoms: _1  and  _3
REMARK    2  A    between atoms: _3  and  _4
REMARK    3  A    between atoms: _3  and  _6
REMARK    4  A    between atoms: _6  and  _7
REMARK    5  A    between atoms: _12  and  _13
REMARK    6  A    between atoms: _15  and  _17
REMARK    7  A    between atoms: _17  and  _18
REMARK    8  A    between atoms: _17  and  _20
REMARK    9  A    between atoms: _20  and  _21
REMARK   10  A    between atoms: _21  and  _22
REMARK   11  A    between atoms: _22  and  _23
REMARK   12  A    between atoms: _23  and  _24
REMARK   13  A    between atoms: _28  and  _30
REMARK   14  A    between atoms: _30  and  _31
REMARK   15  A    between atoms: _30  and  _33
REMARK   16  A    between atoms: _33  and  _34
REMARK   17  A    between atoms: _37  and  _39
REMARK   18  A    between atoms: _39  and  _40
REMARK   19  A    between atoms: _39  and  _42
REMARK   20  A    between atoms: _42  and  _43
REMARK   21  A    between atoms: _46  and  _48
REMARK   22  A    between atoms: _48  and  _49
REMARK   23  A    between atoms: _48  and  _51
REMARK   24  A    between atoms: _51  and  _52
REMARK   25  A    between atoms: _57  and  _59
REMARK   26  A    between atoms: _59  and  _60
REMARK   27  A    between atoms: _59  and  _62
REMARK   28  A    between atoms: _62  and  _63
REMARK   29  A    between atoms: _69  and  _71
REMARK   30  A    between atoms: _71  and  _72
REMARK   31  A    between atoms: _71  and  _74
REMARK   32  A    between atoms: _74  and  _75
REMARK   33  A    between atoms: _77  and  _79
REMARK   34  A    between atoms: _79  and  _80
REMARK   35  A    between atoms: _82  and  _84
REMARK   36  A    between atoms: _84  and  _85
REMARK   37  A    between atoms: _84  and  _87
REMARK   38  A    between atoms: _87  and  _88
REMARK   39  A    between atoms: _88  and  _89
REMARK   40  A    between atoms: _92  and  _94
REMARK   41  A    between atoms: _94  and  _95
REMARK   42  A    between atoms: _94  and  _97
REMARK   43  A    between atoms: _97  and  _98
REMARK   44  A    between atoms: _104  and  _105
REMARK   45  A    between atoms: _110  and  _112
REMARK   46  A    between atoms: _112  and  _113
REMARK   47  A    between atoms: _112  and  _115
REMARK   48  A    between atoms: _115  and  _116
REMARK   49  A    between atoms: _119  and  _121
REMARK   50  A    between atoms: _121  and  _122
REMARK   51  A    between atoms: _125  and  _127
REMARK   52  A    between atoms: _127  and  _128
REMARK   53  A    between atoms: _127  and  _130
REMARK   54  A    between atoms: _130  and  _131
REMARK   55  A    between atoms: _131  and  _132
REMARK   56  A    between atoms: _132  and  _133
REMARK   57  A    between atoms: _142  and  _144
REMARK   58  A    between atoms: _144  and  _145
REMARK   59  A    between atoms: _144  and  _147
REMARK   60  A    between atoms: _147  and  _148
REMARK   61  A    between atoms: _148  and  _149
REMARK   62  A    between atoms: _151  and  _153
REMARK   63  A    between atoms: _153  and  _154
REMARK   64  A    between atoms: _153  and  _156
REMARK   65  A    between atoms: _156  and  _157
REMARK   66  A    between atoms: _167  and  _169
REMARK   67  A    between atoms: _169  and  _170
REMARK   68  A    between atoms: _169  and  _172
REMARK   69  A    between atoms: _172  and  _173
REMARK   70  A    between atoms: _176  and  _178
REMARK   71  A    between atoms: _178  and  _179
REMARK   72  A    between atoms: _178  and  _181
REMARK   73  A    between atoms: _181  and  _182
REMARK   74  A    between atoms: _187  and  _189
REMARK   75  A    between atoms: _189  and  _190
REMARK   76  A    between atoms: _189  and  _192
REMARK   77  A    between atoms: _192  and  _193
REMARK   78  A    between atoms: _198  and  _200
REMARK   79  A    between atoms: _200  and  _201
REMARK   80  A    between atoms: _200  and  _203
REMARK   81  A    between atoms: _203  and  _204
REMARK   82  A    between atoms: _207  and  _209
REMARK   83  A    between atoms: _209  and  _210
REMARK   84  A    between atoms: _213  and  _215
REMARK   85  A    between atoms: _215  and  _216
REMARK   86  A    between atoms: _215  and  _218
REMARK   87  A    between atoms: _218  and  _219
REMARK   88  A    between atoms: _219  and  _220
REMARK   89  A    between atoms: _222  and  _224
REMARK   90  A    between atoms: _224  and  _225
REMARK   91  A    between atoms: _224  and  _227
REMARK   92  A    between atoms: _230  and  _232
REMARK   93  A    between atoms: _232  and  _233
REMARK   94  A    between atoms: _232  and  _235
REMARK   95  A    between atoms: _235  and  _236
REMARK   96  A    between atoms: _239  and  _241
REMARK   97  A    between atoms: _241  and  _242
REMARK   98  A    between atoms: _241  and  _244
REMARK   99  A    between atoms: _244  and  _245
REMARK  100  A    between atoms: _248  and  _250
REMARK  101  A    between atoms: _250  and  _251
REMARK  102  A    between atoms: _250  and  _253
REMARK  103  A    between atoms: _253  and  _254
REMARK  104  A    between atoms: _259  and  _261
REMARK  105  A    between atoms: _261  and  _262
REMARK  106  A    between atoms: _261  and  _264
REMARK  107  A    between atoms: _264  and  _265
REMARK  108  A    between atoms: _270  and  _271
REMARK                            x       y       z     vdW  Elec       q    Type
REMARK                         _______ _______ _______ _____ _____    ______ ____
ROOT
ATOM      1  O   HOH     1      -3.418  24.802 -13.452  0.00  0.00    +0.000 OA
ENDROOT
TORSDOF 0
REMARK  Name = ../refined-set-2016/2qw1/2qw1_pocket.pdb
REMARK  108 active torsions:
REMARK  status: ('A' for Active; 'I' for Inactive)
REMARK    1  A    between atoms: _1  and  _3
REMARK    2  A    between atoms: _3  and  _4
REMARK    3  A    between atoms: _3  and  _6
REMARK    4  A    between atoms: _6  and  _7
REMARK    5  A    between atoms: _12  and  _13
REMARK    6  A    between atoms: _15  and  _17
REMARK    7  A    between atoms: _17  and  _18
REMARK    8  A    between atoms: _17  and  _20
REMARK    9  A    between atoms: _20  and  _21
REMARK   10  A    between atoms: _21  and  _22
REMARK   11  A    between atoms: _22  and  _23
REMARK   12  A    between atoms: _23  and  _24
REMARK   13  A    between atoms: _28  and  _30
REMARK   14  A    between atoms: _30  and  _31
REMARK   15  A    between atoms: _30  and  _33
REMARK   16  A    between atoms: _33  and  _34
REMARK   17  A    between atoms: _37  and  _39
REMARK   18  A    between atoms: _39  and  _40
REMARK   19  A    between atoms: _39  and  _42
REMARK   20  A    between atoms: _42  and  _43
REMARK   21  A    between atoms: _46  and  _48
REMARK   22  A    between atoms: _48  and  _49
REMARK   23  A    between atoms: _48  and  _51
REMARK   24  A    between atoms: _51  and  _52
REMARK   25  A    between atoms: _57  and  _59
REMARK   26  A    between atoms: _59  and  _60
REMARK   27  A    between atoms: _59  and  _62
REMARK   28  A    between atoms: _62  and  _63
REMARK   29  A    between atoms: _69  and  _71
REMARK   30  A    between atoms: _71  and  _72
REMARK   31  A    between atoms: _71  and  _74
REMARK   32  A    between atoms: _74  and  _75
REMARK   33  A    between atoms: _77  and  _79
REMARK   34  A    between atoms: _79  and  _80
REMARK   35  A    between atoms: _82  and  _84
REMARK   36  A    between atoms: _84  and  _85
REMARK   37  A    between atoms: _84  and  _87
REMARK   38  A    between atoms: _87  and  _88
REMARK   39  A    between atoms: _88  and  _89
REMARK   40  A    between atoms: _92  and  _94
REMARK   41  A    between atoms: _94  and  _95
REMARK   42  A    between atoms: _94  and  _97
REMARK   43  A    between atoms: _97  and  _98
REMARK   44  A    between atoms: _104  and  _105
REMARK   45  A    between atoms: _110  and  _112
REMARK   46  A    between atoms: _112  and  _113
REMARK   47  A    between atoms: _112  and  _115
REMARK   48  A    between atoms: _115  and  _116
REMARK   49  A    between atoms: _119  and  _121
REMARK   50  A    between atoms: _121  and  _122
REMARK   51  A    between atoms: _125  and  _127
REMARK   52  A    between atoms: _127  and  _128
REMARK   53  A    between atoms: _127  and  _130
REMARK   54  A    between atoms: _130  and  _131
REMARK   55  A    between atoms: _131  and  _132
REMARK   56  A    between atoms: _132  and  _133
REMARK   57  A    between atoms: _142  and  _144
REMARK   58  A    between atoms: _144  and  _145
REMARK   59  A    between atoms: _144  and  _147
REMARK   60  A    between atoms: _147  and  _148
REMARK   61  A    between atoms: _148  and  _149
REMARK   62  A    between atoms: _151  and  _153
REMARK   63  A    between atoms: _153  and  _154
REMARK   64  A    between atoms: _153  and  _156
REMARK   65  A    between atoms: _156  and  _157
REMARK   66  A    between atoms: _167  and  _169
REMARK   67  A    between atoms: _169  and  _170
REMARK   68  A    between atoms: _169  and  _172
REMARK   69  A    between atoms: _172  and  _173
REMARK   70  A    between atoms: _176  and  _178
REMARK   71  A    between atoms: _178  and  _179
REMARK   72  A    between atoms: _178  and  _181
REMARK   73  A    between atoms: _181  and  _182
REMARK   74  A    between atoms: _187  and  _189
REMARK   75  A    between atoms: _189  and  _190
REMARK   76  A    between atoms: _189  and  _192
REMARK   77  A    between atoms: _192  and  _193
REMARK   78  A    between atoms: _198  and  _200
REMARK   79  A    between atoms: _200  and  _201
REMARK   80  A    between atoms: _200  and  _203
REMARK   81  A    between atoms: _203  and  _204
REMARK   82  A    between atoms: _207  and  _209
REMARK   83  A    between atoms: _209  and  _210
REMARK   84  A    between atoms: _213  and  _215
REMARK   85  A    between atoms: _215  and  _216
REMARK   86  A    between atoms: _215  and  _218
REMARK   87  A    between atoms: _218  and  _219
REMARK   88  A    between atoms: _219  and  _220
REMARK   89  A    between atoms: _222  and  _224
REMARK   90  A    between atoms: _224  and  _225
REMARK   91  A    between atoms: _224  and  _227
REMARK   92  A    between atoms: _230  and  _232
REMARK   93  A    between atoms: _232  and  _233
REMARK   94  A    between atoms: _232  and  _235
REMARK   95  A    between atoms: _235  and  _236
REMARK   96  A    between atoms: _239  and  _241
REMARK   97  A    between atoms: _241  and  _242
REMARK   98  A    between atoms: _241  and  _244
REMARK   99  A    between atoms: _244  and  _245
REMARK  100  A    between atoms: _248  and  _250
REMARK  101  A    between atoms: _250  and  _251
REMARK  102  A    between atoms: _250  and  _253
REMARK  103  A    between atoms: _253  and  _254
REMARK  104  A    between atoms: _259  and  _261
REMARK  105  A    between atoms: _261  and  _262
REMARK  106  A    between atoms: _261  and  _264
REMARK  107  A    between atoms: _264  and  _265
REMARK  108  A    between atoms: _270  and  _271
REMARK                            x       y       z     vdW  Elec       q    Type
REMARK                         _______ _______ _______ _____ _____    ______ ____
ROOT
ATOM      1  O   HOH     1      -7.231  26.249 -15.888  0.00  0.00    +0.000 OA
ENDROOT
TORSDOF 0
REMARK  Name = ../refined-set-2016/2qw1/2qw1_pocket.pdb
REMARK  108 active torsions:
REMARK  status: ('A' for Active; 'I' for Inactive)
REMARK    1  A    between atoms: _1  and  _3
REMARK    2  A    between atoms: _3  and  _4
REMARK    3  A    between atoms: _3  and  _6
REMARK    4  A    between atoms: _6  and  _7
REMARK    5  A    between atoms: _12  and  _13
REMARK    6  A    between atoms: _15  and  _17
REMARK    7  A    between atoms: _17  and  _18
REMARK    8  A    between atoms: _17  and  _20
REMARK    9  A    between atoms: _20  and  _21
REMARK   10  A    between atoms: _21  and  _22
REMARK   11  A    between atoms: _22  and  _23
REMARK   12  A    between atoms: _23  and  _24
REMARK   13  A    between atoms: _28  and  _30
REMARK   14  A    between atoms: _30  and  _31
REMARK   15  A    between atoms: _30  and  _33
REMARK   16  A    between atoms: _33  and  _34
REMARK   17  A    between atoms: _37  and  _39
REMARK   18  A    between atoms: _39  and  _40
REMARK   19  A    between atoms: _39  and  _42
REMARK   20  A    between atoms: _42  and  _43
REMARK   21  A    between atoms: _46  and  _48
REMARK   22  A    between atoms: _48  and  _49
REMARK   23  A    between atoms: _48  and  _51
REMARK   24  A    between atoms: _51  and  _52
REMARK   25  A    between atoms: _57  and  _59
REMARK   26  A    between atoms: _59  and  _60
REMARK   27  A    between atoms: _59  and  _62
REMARK   28  A    between atoms: _62  and  _63
REMARK   29  A    between atoms: _69  and  _71
REMARK   30  A    between atoms: _71  and  _72
REMARK   31  A    between atoms: _71  and  _74
REMARK   32  A    between atoms: _74  and  _75
REMARK   33  A    between atoms: _77  and  _79
REMARK   34  A    between atoms: _79  and  _80
REMARK   35  A    between atoms: _82  and  _84
REMARK   36  A    between atoms: _84  and  _85
REMARK   37  A    between atoms: _84  and  _87
REMARK   38  A    between atoms: _87  and  _88
REMARK   39  A    between atoms: _88  and  _89
REMARK   40  A    between atoms: _92  and  _94
REMARK   41  A    between atoms: _94  and  _95
REMARK   42  A    between atoms: _94  and  _97
REMARK   43  A    between atoms: _97  and  _98
REMARK   44  A    between atoms: _104  and  _105
REMARK   45  A    between atoms: _110  and  _112
REMARK   46  A    between atoms: _112  and  _113
REMARK   47  A    between atoms: _112  and  _115
REMARK   48  A    between atoms: _115  and  _116
REMARK   49  A    between atoms: _119  and  _121
REMARK   50  A    between atoms: _121  and  _122
REMARK   51  A    between atoms: _125  and  _127
REMARK   52  A    between atoms: _127  and  _128
REMARK   53  A    between atoms: _127  and  _130
REMARK   54  A    between atoms: _130  and  _131
REMARK   55  A    between atoms: _131  and  _132
REMARK   56  A    between atoms: _132  and  _133
REMARK   57  A    between atoms: _142  and  _144
REMARK   58  A    between atoms: _144  and  _145
REMARK   59  A    between atoms: _144  and  _147
REMARK   60  A    between atoms: _147  and  _148
REMARK   61  A    between atoms: _148  and  _149
REMARK   62  A    between atoms: _151  and  _153
REMARK   63  A    between atoms: _153  and  _154
REMARK   64  A    between atoms: _153  and  _156
REMARK   65  A    between atoms: _156  and  _157
REMARK   66  A    between atoms: _167  and  _169
REMARK   67  A    between atoms: _169  and  _170
REMARK   68  A    between atoms: _169  and  _172
REMARK   69  A    between atoms: _172  and  _173
REMARK   70  A    between atoms: _176  and  _178
REMARK   71  A    between atoms: _178  and  _179
REMARK   72  A    between atoms: _178  and  _181
REMARK   73  A    between atoms: _181  and  _182
REMARK   74  A    between atoms: _187  and  _189
REMARK   75  A    between atoms: _189  and  _190
REMARK   76  A    between atoms: _189  and  _192
REMARK   77  A    between atoms: _192  and  _193
REMARK   78  A    between atoms: _198  and  _200
REMARK   79  A    between atoms: _200  and  _201
REMARK   80  A    between atoms: _200  and  _203
REMARK   81  A    between atoms: _203  and  _204
REMARK   82  A    between atoms: _207  and  _209
REMARK   83  A    between atoms: _209  and  _210
REMARK   84  A    between atoms: _213  and  _215
REMARK   85  A    between atoms: _215  and  _216
REMARK   86  A    between atoms: _215  and  _218
REMARK   87  A    between atoms: _218  and  _219
REMARK   88  A    between atoms: _219  and  _220
REMARK   89  A    between atoms: _222  and  _224
REMARK   90  A    between atoms: _224  and  _225
REMARK   91  A    between atoms: _224  and  _227
REMARK   92  A    between atoms: _230  and  _232
REMARK   93  A    between atoms: _232  and  _233
REMARK   94  A    between atoms: _232  and  _235
REMARK   95  A    between atoms: _235  and  _236
REMARK   96  A    between atoms: _239  and  _241
REMARK   97  A    between atoms: _241  and  _242
REMARK   98  A    between atoms: _241  and  _244
REMARK   99  A    between atoms: _244  and  _245
REMARK  100  A    between atoms: _248  and  _250
REMARK  101  A    between atoms: _250  and  _251
REMARK  102  A    between atoms: _250  and  _253
REMARK  103  A    between atoms: _253  and  _254
REMARK  104  A    between atoms: _259  and  _261
REMARK  105  A    between atoms: _261  and  _262
REMARK  106  A    between atoms: _261  and  _264
REMARK  107  A    between atoms: _264  and  _265
REMARK  108  A    between atoms: _270  and  _271
REMARK                            x       y       z     vdW  Elec       q    Type
REMARK                         _______ _______ _______ _____ _____    ______ ____
ROOT
ATOM      1  O   HOH     1      -8.412  26.352 -18.354  0.00  0.00    +0.000 OA
ENDROOT
TORSDOF 0
REMARK  Name = ../refined-set-2016/2qw1/2qw1_pocket.pdb
REMARK  108 active torsions:
REMARK  status: ('A' for Active; 'I' for Inactive)
REMARK    1  A    between atoms: _1  and  _3
REMARK    2  A    between atoms: _3  and  _4
REMARK    3  A    between atoms: _3  and  _6
REMARK    4  A    between atoms: _6  and  _7
REMARK    5  A    between atoms: _12  and  _13
REMARK    6  A    between atoms: _15  and  _17
REMARK    7  A    between atoms: _17  and  _18
REMARK    8  A    between atoms: _17  and  _20
REMARK    9  A    between atoms: _20  and  _21
REMARK   10  A    between atoms: _21  and  _22
REMARK   11  A    between atoms: _22  and  _23
REMARK   12  A    between atoms: _23  and  _24
REMARK   13  A    between atoms: _28  and  _30
REMARK   14  A    between atoms: _30  and  _31
REMARK   15  A    between atoms: _30  and  _33
REMARK   16  A    between atoms: _33  and  _34
REMARK   17  A    between atoms: _37  and  _39
REMARK   18  A    between atoms: _39  and  _40
REMARK   19  A    between atoms: _39  and  _42
REMARK   20  A    between atoms: _42  and  _43
REMARK   21  A    between atoms: _46  and  _48
REMARK   22  A    between atoms: _48  and  _49
REMARK   23  A    between atoms: _48  and  _51
REMARK   24  A    between atoms: _51  and  _52
REMARK   25  A    between atoms: _57  and  _59
REMARK   26  A    between atoms: _59  and  _60
REMARK   27  A    between atoms: _59  and  _62
REMARK   28  A    between atoms: _62  and  _63
REMARK   29  A    between atoms: _69  and  _71
REMARK   30  A    between atoms: _71  and  _72
REMARK   31  A    between atoms: _71  and  _74
REMARK   32  A    between atoms: _74  and  _75
REMARK   33  A    between atoms: _77  and  _79
REMARK   34  A    between atoms: _79  and  _80
REMARK   35  A    between atoms: _82  and  _84
REMARK   36  A    between atoms: _84  and  _85
REMARK   37  A    between atoms: _84  and  _87
REMARK   38  A    between atoms: _87  and  _88
REMARK   39  A    between atoms: _88  and  _89
REMARK   40  A    between atoms: _92  and  _94
REMARK   41  A    between atoms: _94  and  _95
REMARK   42  A    between atoms: _94  and  _97
REMARK   43  A    between atoms: _97  and  _98
REMARK   44  A    between atoms: _104  and  _105
REMARK   45  A    between atoms: _110  and  _112
REMARK   46  A    between atoms: _112  and  _113
REMARK   47  A    between atoms: _112  and  _115
REMARK   48  A    between atoms: _115  and  _116
REMARK   49  A    between atoms: _119  and  _121
REMARK   50  A    between atoms: _121  and  _122
REMARK   51  A    between atoms: _125  and  _127
REMARK   52  A    between atoms: _127  and  _128
REMARK   53  A    between atoms: _127  and  _130
REMARK   54  A    between atoms: _130  and  _131
REMARK   55  A    between atoms: _131  and  _132
REMARK   56  A    between atoms: _132  and  _133
REMARK   57  A    between atoms: _142  and  _144
REMARK   58  A    between atoms: _144  and  _145
REMARK   59  A    between atoms: _144  and  _147
REMARK   60  A    between atoms: _147  and  _148
REMARK   61  A    between atoms: _148  and  _149
REMARK   62  A    between atoms: _151  and  _153
REMARK   63  A    between atoms: _153  and  _154
REMARK   64  A    between atoms: _153  and  _156
REMARK   65  A    between atoms: _156  and  _157
REMARK   66  A    between atoms: _167  and  _169
REMARK   67  A    between atoms: _169  and  _170
REMARK   68  A    between atoms: _169  and  _172
REMARK   69  A    between atoms: _172  and  _173
REMARK   70  A    between atoms: _176  and  _178
REMARK   71  A    between atoms: _178  and  _179
REMARK   72  A    between atoms: _178  and  _181
REMARK   73  A    between atoms: _181  and  _182
REMARK   74  A    between atoms: _187  and  _189
REMARK   75  A    between atoms: _189  and  _190
REMARK   76  A    between atoms: _189  and  _192
REMARK   77  A    between atoms: _192  and  _193
REMARK   78  A    between atoms: _198  and  _200
REMARK   79  A    between atoms: _200  and  _201
REMARK   80  A    between atoms: _200  and  _203
REMARK   81  A    between atoms: _203  and  _204
REMARK   82  A    between atoms: _207  and  _209
REMARK   83  A    between atoms: _209  and  _210
REMARK   84  A    between atoms: _213  and  _215
REMARK   85  A    between atoms: _215  and  _216
REMARK   86  A    between atoms: _215  and  _218
REMARK   87  A    between atoms: _218  and  _219
REMARK   88  A    between atoms: _219  and  _220
REMARK   89  A    between atoms: _222  and  _224
REMARK   90  A    between atoms: _224  and  _225
REMARK   91  A    between atoms: _224  and  _227
REMARK   92  A    between atoms: _230  and  _232
REMARK   93  A    between atoms: _232  and  _233
REMARK   94  A    between atoms: _232  and  _235
REMARK   95  A    between atoms: _235  and  _236
REMARK   96  A    between atoms: _239  and  _241
REMARK   97  A    between atoms: _241  and  _242
REMARK   98  A    between atoms: _241  and  _244
REMARK   99  A    between atoms: _244  and  _245
REMARK  100  A    between atoms: _248  and  _250
REMARK  101  A    between atoms: _250  and  _251
REMARK  102  A    between atoms: _250  and  _253
REMARK  103  A    between atoms: _253  and  _254
REMARK  104  A    between atoms: _259  and  _261
REMARK  105  A    between atoms: _261  and  _262
REMARK  106  A    between atoms: _261  and  _264
REMARK  107  A    between atoms: _264  and  _265
REMARK  108  A    between atoms: _270  and  _271
REMARK                            x       y       z     vdW  Elec       q    Type
REMARK                         _______ _______ _______ _____ _____    ______ ____
ROOT
ATOM      1  O   HOH     1      -7.895  29.247 -15.467  0.00  0.00    +0.000 OA
ENDROOT
TORSDOF 0
REMARK  Name = ../refined-set-2016/2qw1/2qw1_pocket.pdb
REMARK  108 active torsions:
REMARK  status: ('A' for Active; 'I' for Inactive)
REMARK    1  A    between atoms: _1  and  _3
REMARK    2  A    between atoms: _3  and  _4
REMARK    3  A    between atoms: _3  and  _6
REMARK    4  A    between atoms: _6  and  _7
REMARK    5  A    between atoms: _12  and  _13
REMARK    6  A    between atoms: _15  and  _17
REMARK    7  A    between atoms: _17  and  _18
REMARK    8  A    between atoms: _17  and  _20
REMARK    9  A    between atoms: _20  and  _21
REMARK   10  A    between atoms: _21  and  _22
REMARK   11  A    between atoms: _22  and  _23
REMARK   12  A    between atoms: _23  and  _24
REMARK   13  A    between atoms: _28  and  _30
REMARK   14  A    between atoms: _30  and  _31
REMARK   15  A    between atoms: _30  and  _33
REMARK   16  A    between atoms: _33  and  _34
REMARK   17  A    between atoms: _37  and  _39
REMARK   18  A    between atoms: _39  and  _40
REMARK   19  A    between atoms: _39  and  _42
REMARK   20  A    between atoms: _42  and  _43
REMARK   21  A    between atoms: _46  and  _48
REMARK   22  A    between atoms: _48  and  _49
REMARK   23  A    between atoms: _48  and  _51
REMARK   24  A    between atoms: _51  and  _52
REMARK   25  A    between atoms: _57  and  _59
REMARK   26  A    between atoms: _59  and  _60
REMARK   27  A    between atoms: _59  and  _62
REMARK   28  A    between atoms: _62  and  _63
REMARK   29  A    between atoms: _69  and  _71
REMARK   30  A    between atoms: _71  and  _72
REMARK   31  A    between atoms: _71  and  _74
REMARK   32  A    between atoms: _74  and  _75
REMARK   33  A    between atoms: _77  and  _79
REMARK   34  A    between atoms: _79  and  _80
REMARK   35  A    between atoms: _82  and  _84
REMARK   36  A    between atoms: _84  and  _85
REMARK   37  A    between atoms: _84  and  _87
REMARK   38  A    between atoms: _87  and  _88
REMARK   39  A    between atoms: _88  and  _89
REMARK   40  A    between atoms: _92  and  _94
REMARK   41  A    between atoms: _94  and  _95
REMARK   42  A    between atoms: _94  and  _97
REMARK   43  A    between atoms: _97  and  _98
REMARK   44  A    between atoms: _104  and  _105
REMARK   45  A    between atoms: _110  and  _112
REMARK   46  A    between atoms: _112  and  _113
REMARK   47  A    between atoms: _112  and  _115
REMARK   48  A    between atoms: _115  and  _116
REMARK   49  A    between atoms: _119  and  _121
REMARK   50  A    between atoms: _121  and  _122
REMARK   51  A    between atoms: _125  and  _127
REMARK   52  A    between atoms: _127  and  _128
REMARK   53  A    between atoms: _127  and  _130
REMARK   54  A    between atoms: _130  and  _131
REMARK   55  A    between atoms: _131  and  _132
REMARK   56  A    between atoms: _132  and  _133
REMARK   57  A    between atoms: _142  and  _144
REMARK   58  A    between atoms: _144  and  _145
REMARK   59  A    between atoms: _144  and  _147
REMARK   60  A    between atoms: _147  and  _148
REMARK   61  A    between atoms: _148  and  _149
REMARK   62  A    between atoms: _151  and  _153
REMARK   63  A    between atoms: _153  and  _154
REMARK   64  A    between atoms: _153  and  _156
REMARK   65  A    between atoms: _156  and  _157
REMARK   66  A    between atoms: _167  and  _169
REMARK   67  A    between atoms: _169  and  _170
REMARK   68  A    between atoms: _169  and  _172
REMARK   69  A    between atoms: _172  and  _173
REMARK   70  A    between atoms: _176  and  _178
REMARK   71  A    between atoms: _178  and  _179
REMARK   72  A    between atoms: _178  and  _181
REMARK   73  A    between atoms: _181  and  _182
REMARK   74  A    between atoms: _187  and  _189
REMARK   75  A    between atoms: _189  and  _190
REMARK   76  A    between atoms: _189  and  _192
REMARK   77  A    between atoms: _192  and  _193
REMARK   78  A    between atoms: _198  and  _200
REMARK   79  A    between atoms: _200  and  _201
REMARK   80  A    between atoms: _200  and  _203
REMARK   81  A    between atoms: _203  and  _204
REMARK   82  A    between atoms: _207  and  _209
REMARK   83  A    between atoms: _209  and  _210
REMARK   84  A    between atoms: _213  and  _215
REMARK   85  A    between atoms: _215  and  _216
REMARK   86  A    between atoms: _215  and  _218
REMARK   87  A    between atoms: _218  and  _219
REMARK   88  A    between atoms: _219  and  _220
REMARK   89  A    between atoms: _222  and  _224
REMARK   90  A    between atoms: _224  and  _225
REMARK   91  A    between atoms: _224  and  _227
REMARK   92  A    between atoms: _230  and  _232
REMARK   93  A    between atoms: _232  and  _233
REMARK   94  A    between atoms: _232  and  _235
REMARK   95  A    between atoms: _235  and  _236
REMARK   96  A    between atoms: _239  and  _241
REMARK   97  A    between atoms: _241  and  _242
REMARK   98  A    between atoms: _241  and  _244
REMARK   99  A    between atoms: _244  and  _245
REMARK  100  A    between atoms: _248  and  _250
REMARK  101  A    between atoms: _250  and  _251
REMARK  102  A    between atoms: _250  and  _253
REMARK  103  A    between atoms: _253  and  _254
REMARK  104  A    between atoms: _259  and  _261
REMARK  105  A    between atoms: _261  and  _262
REMARK  106  A    between atoms: _261  and  _264
REMARK  107  A    between atoms: _264  and  _265
REMARK  108  A    between atoms: _270  and  _271
REMARK                            x       y       z     vdW  Elec       q    Type
REMARK                         _______ _______ _______ _____ _____    ______ ____
ROOT
ATOM      1  O   HOH     1     -10.765  27.632 -17.065  0.00  0.00    +0.000 OA
ENDROOT
TORSDOF 0
REMARK  Name = ../refined-set-2016/2qw1/2qw1_pocket.pdb
REMARK  108 active torsions:
REMARK  status: ('A' for Active; 'I' for Inactive)
REMARK    1  A    between atoms: _1  and  _3
REMARK    2  A    between atoms: _3  and  _4
REMARK    3  A    between atoms: _3  and  _6
REMARK    4  A    between atoms: _6  and  _7
REMARK    5  A    between atoms: _12  and  _13
REMARK    6  A    between atoms: _15  and  _17
REMARK    7  A    between atoms: _17  and  _18
REMARK    8  A    between atoms: _17  and  _20
REMARK    9  A    between atoms: _20  and  _21
REMARK   10  A    between atoms: _21  and  _22
REMARK   11  A    between atoms: _22  and  _23
REMARK   12  A    between atoms: _23  and  _24
REMARK   13  A    between atoms: _28  and  _30
REMARK   14  A    between atoms: _30  and  _31
REMARK   15  A    between atoms: _30  and  _33
REMARK   16  A    between atoms: _33  and  _34
REMARK   17  A    between atoms: _37  and  _39
REMARK   18  A    between atoms: _39  and  _40
REMARK   19  A    between atoms: _39  and  _42
REMARK   20  A    between atoms: _42  and  _43
REMARK   21  A    between atoms: _46  and  _48
REMARK   22  A    between atoms: _48  and  _49
REMARK   23  A    between atoms: _48  and  _51
REMARK   24  A    between atoms: _51  and  _52
REMARK   25  A    between atoms: _57  and  _59
REMARK   26  A    between atoms: _59  and  _60
REMARK   27  A    between atoms: _59  and  _62
REMARK   28  A    between atoms: _62  and  _63
REMARK   29  A    between atoms: _69  and  _71
REMARK   30  A    between atoms: _71  and  _72
REMARK   31  A    between atoms: _71  and  _74
REMARK   32  A    between atoms: _74  and  _75
REMARK   33  A    between atoms: _77  and  _79
REMARK   34  A    between atoms: _79  and  _80
REMARK   35  A    between atoms: _82  and  _84
REMARK   36  A    between atoms: _84  and  _85
REMARK   37  A    between atoms: _84  and  _87
REMARK   38  A    between atoms: _87  and  _88
REMARK   39  A    between atoms: _88  and  _89
REMARK   40  A    between atoms: _92  and  _94
REMARK   41  A    between atoms: _94  and  _95
REMARK   42  A    between atoms: _94  and  _97
REMARK   43  A    between atoms: _97  and  _98
REMARK   44  A    between atoms: _104  and  _105
REMARK   45  A    between atoms: _110  and  _112
REMARK   46  A    between atoms: _112  and  _113
REMARK   47  A    between atoms: _112  and  _115
REMARK   48  A    between atoms: _115  and  _116
REMARK   49  A    between atoms: _119  and  _121
REMARK   50  A    between atoms: _121  and  _122
REMARK   51  A    between atoms: _125  and  _127
REMARK   52  A    between atoms: _127  and  _128
REMARK   53  A    between atoms: _127  and  _130
REMARK   54  A    between atoms: _130  and  _131
REMARK   55  A    between atoms: _131  and  _132
REMARK   56  A    between atoms: _132  and  _133
REMARK   57  A    between atoms: _142  and  _144
REMARK   58  A    between atoms: _144  and  _145
REMARK   59  A    between atoms: _144  and  _147
REMARK   60  A    between atoms: _147  and  _148
REMARK   61  A    between atoms: _148  and  _149
REMARK   62  A    between atoms: _151  and  _153
REMARK   63  A    between atoms: _153  and  _154
REMARK   64  A    between atoms: _153  and  _156
REMARK   65  A    between atoms: _156  and  _157
REMARK   66  A    between atoms: _167  and  _169
REMARK   67  A    between atoms: _169  and  _170
REMARK   68  A    between atoms: _169  and  _172
REMARK   69  A    between atoms: _172  and  _173
REMARK   70  A    between atoms: _176  and  _178
REMARK   71  A    between atoms: _178  and  _179
REMARK   72  A    between atoms: _178  and  _181
REMARK   73  A    between atoms: _181  and  _182
REMARK   74  A    between atoms: _187  and  _189
REMARK   75  A    between atoms: _189  and  _190
REMARK   76  A    between atoms: _189  and  _192
REMARK   77  A    between atoms: _192  and  _193
REMARK   78  A    between atoms: _198  and  _200
REMARK   79  A    between atoms: _200  and  _201
REMARK   80  A    between atoms: _200  and  _203
REMARK   81  A    between atoms: _203  and  _204
REMARK   82  A    between atoms: _207  and  _209
REMARK   83  A    between atoms: _209  and  _210
REMARK   84  A    between atoms: _213  and  _215
REMARK   85  A    between atoms: _215  and  _216
REMARK   86  A    between atoms: _215  and  _218
REMARK   87  A    between atoms: _218  and  _219
REMARK   88  A    between atoms: _219  and  _220
REMARK   89  A    between atoms: _222  and  _224
REMARK   90  A    between atoms: _224  and  _225
REMARK   91  A    between atoms: _224  and  _227
REMARK   92  A    between atoms: _230  and  _232
REMARK   93  A    between atoms: _232  and  _233
REMARK   94  A    between atoms: _232  and  _235
REMARK   95  A    between atoms: _235  and  _236
REMARK   96  A    between atoms: _239  and  _241
REMARK   97  A    between atoms: _241  and  _242
REMARK   98  A    between atoms: _241  and  _244
REMARK   99  A    between atoms: _244  and  _245
REMARK  100  A    between atoms: _248  and  _250
REMARK  101  A    between atoms: _250  and  _251
REMARK  102  A    between atoms: _250  and  _253
REMARK  103  A    between atoms: _253  and  _254
REMARK  104  A    between atoms: _259  and  _261
REMARK  105  A    between atoms: _261  and  _262
REMARK  106  A    between atoms: _261  and  _264
REMARK  107  A    between atoms: _264  and  _265
REMARK  108  A    between atoms: _270  and  _271
REMARK                            x       y       z     vdW  Elec       q    Type
REMARK                         _______ _______ _______ _____ _____    ______ ____
ROOT
ATOM      1  O   HOH     1       2.504  19.056 -14.594  0.00  0.00    +0.000 OA
ENDROOT
TORSDOF 0
REMARK  Name = ../refined-set-2016/2qw1/2qw1_pocket.pdb
REMARK  108 active torsions:
REMARK  status: ('A' for Active; 'I' for Inactive)
REMARK    1  A    between atoms: _1  and  _3
REMARK    2  A    between atoms: _3  and  _4
REMARK    3  A    between atoms: _3  and  _6
REMARK    4  A    between atoms: _6  and  _7
REMARK    5  A    between atoms: _12  and  _13
REMARK    6  A    between atoms: _15  and  _17
REMARK    7  A    between atoms: _17  and  _18
REMARK    8  A    between atoms: _17  and  _20
REMARK    9  A    between atoms: _20  and  _21
REMARK   10  A    between atoms: _21  and  _22
REMARK   11  A    between atoms: _22  and  _23
REMARK   12  A    between atoms: _23  and  _24
REMARK   13  A    between atoms: _28  and  _30
REMARK   14  A    between atoms: _30  and  _31
REMARK   15  A    between atoms: _30  and  _33
REMARK   16  A    between atoms: _33  and  _34
REMARK   17  A    between atoms: _37  and  _39
REMARK   18  A    between atoms: _39  and  _40
REMARK   19  A    between atoms: _39  and  _42
REMARK   20  A    between atoms: _42  and  _43
REMARK   21  A    between atoms: _46  and  _48
REMARK   22  A    between atoms: _48  and  _49
REMARK   23  A    between atoms: _48  and  _51
REMARK   24  A    between atoms: _51  and  _52
REMARK   25  A    between atoms: _57  and  _59
REMARK   26  A    between atoms: _59  and  _60
REMARK   27  A    between atoms: _59  and  _62
REMARK   28  A    between atoms: _62  and  _63
REMARK   29  A    between atoms: _69  and  _71
REMARK   30  A    between atoms: _71  and  _72
REMARK   31  A    between atoms: _71  and  _74
REMARK   32  A    between atoms: _74  and  _75
REMARK   33  A    between atoms: _77  and  _79
REMARK   34  A    between atoms: _79  and  _80
REMARK   35  A    between atoms: _82  and  _84
REMARK   36  A    between atoms: _84  and  _85
REMARK   37  A    between atoms: _84  and  _87
REMARK   38  A    between atoms: _87  and  _88
REMARK   39  A    between atoms: _88  and  _89
REMARK   40  A    between atoms: _92  and  _94
REMARK   41  A    between atoms: _94  and  _95
REMARK   42  A    between atoms: _94  and  _97
REMARK   43  A    between atoms: _97  and  _98
REMARK   44  A    between atoms: _104  and  _105
REMARK   45  A    between atoms: _110  and  _112
REMARK   46  A    between atoms: _112  and  _113
REMARK   47  A    between atoms: _112  and  _115
REMARK   48  A    between atoms: _115  and  _116
REMARK   49  A    between atoms: _119  and  _121
REMARK   50  A    between atoms: _121  and  _122
REMARK   51  A    between atoms: _125  and  _127
REMARK   52  A    between atoms: _127  and  _128
REMARK   53  A    between atoms: _127  and  _130
REMARK   54  A    between atoms: _130  and  _131
REMARK   55  A    between atoms: _131  and  _132
REMARK   56  A    between atoms: _132  and  _133
REMARK   57  A    between atoms: _142  and  _144
REMARK   58  A    between atoms: _144  and  _145
REMARK   59  A    between atoms: _144  and  _147
REMARK   60  A    between atoms: _147  and  _148
REMARK   61  A    between atoms: _148  and  _149
REMARK   62  A    between atoms: _151  and  _153
REMARK   63  A    between atoms: _153  and  _154
REMARK   64  A    between atoms: _153  and  _156
REMARK   65  A    between atoms: _156  and  _157
REMARK   66  A    between atoms: _167  and  _169
REMARK   67  A    between atoms: _169  and  _170
REMARK   68  A    between atoms: _169  and  _172
REMARK   69  A    between atoms: _172  and  _173
REMARK   70  A    between atoms: _176  and  _178
REMARK   71  A    between atoms: _178  and  _179
REMARK   72  A    between atoms: _178  and  _181
REMARK   73  A    between atoms: _181  and  _182
REMARK   74  A    between atoms: _187  and  _189
REMARK   75  A    between atoms: _189  and  _190
REMARK   76  A    between atoms: _189  and  _192
REMARK   77  A    between atoms: _192  and  _193
REMARK   78  A    between atoms: _198  and  _200
REMARK   79  A    between atoms: _200  and  _201
REMARK   80  A    between atoms: _200  and  _203
REMARK   81  A    between atoms: _203  and  _204
REMARK   82  A    between atoms: _207  and  _209
REMARK   83  A    between atoms: _209  and  _210
REMARK   84  A    between atoms: _213  and  _215
REMARK   85  A    between atoms: _215  and  _216
REMARK   86  A    between atoms: _215  and  _218
REMARK   87  A    between atoms: _218  and  _219
REMARK   88  A    between atoms: _219  and  _220
REMARK   89  A    between atoms: _222  and  _224
REMARK   90  A    between atoms: _224  and  _225
REMARK   91  A    between atoms: _224  and  _227
REMARK   92  A    between atoms: _230  and  _232
REMARK   93  A    between atoms: _232  and  _233
REMARK   94  A    between atoms: _232  and  _235
REMARK   95  A    between atoms: _235  and  _236
REMARK   96  A    between atoms: _239  and  _241
REMARK   97  A    between atoms: _241  and  _242
REMARK   98  A    between atoms: _241  and  _244
REMARK   99  A    between atoms: _244  and  _245
REMARK  100  A    between atoms: _248  and  _250
REMARK  101  A    between atoms: _250  and  _251
REMARK  102  A    between atoms: _250  and  _253
REMARK  103  A    between atoms: _253  and  _254
REMARK  104  A    between atoms: _259  and  _261
REMARK  105  A    between atoms: _261  and  _262
REMARK  106  A    between atoms: _261  and  _264
REMARK  107  A    between atoms: _264  and  _265
REMARK  108  A    between atoms: _270  and  _271
REMARK                            x       y       z     vdW  Elec       q    Type
REMARK                         _______ _______ _______ _____ _____    ______ ____
ROOT
ATOM      1  O   HOH     1     -12.038  25.325 -16.489  0.00  0.00    +0.000 OA
ENDROOT
TORSDOF 0
REMARK  Name = ../refined-set-2016/2qw1/2qw1_pocket.pdb
REMARK  108 active torsions:
REMARK  status: ('A' for Active; 'I' for Inactive)
REMARK    1  A    between atoms: _1  and  _3
REMARK    2  A    between atoms: _3  and  _4
REMARK    3  A    between atoms: _3  and  _6
REMARK    4  A    between atoms: _6  and  _7
REMARK    5  A    between atoms: _12  and  _13
REMARK    6  A    between atoms: _15  and  _17
REMARK    7  A    between atoms: _17  and  _18
REMARK    8  A    between atoms: _17  and  _20
REMARK    9  A    between atoms: _20  and  _21
REMARK   10  A    between atoms: _21  and  _22
REMARK   11  A    between atoms: _22  and  _23
REMARK   12  A    between atoms: _23  and  _24
REMARK   13  A    between atoms: _28  and  _30
REMARK   14  A    between atoms: _30  and  _31
REMARK   15  A    between atoms: _30  and  _33
REMARK   16  A    between atoms: _33  and  _34
REMARK   17  A    between atoms: _37  and  _39
REMARK   18  A    between atoms: _39  and  _40
REMARK   19  A    between atoms: _39  and  _42
REMARK   20  A    between atoms: _42  and  _43
REMARK   21  A    between atoms: _46  and  _48
REMARK   22  A    between atoms: _48  and  _49
REMARK   23  A    between atoms: _48  and  _51
REMARK   24  A    between atoms: _51  and  _52
REMARK   25  A    between atoms: _57  and  _59
REMARK   26  A    between atoms: _59  and  _60
REMARK   27  A    between atoms: _59  and  _62
REMARK   28  A    between atoms: _62  and  _63
REMARK   29  A    between atoms: _69  and  _71
REMARK   30  A    between atoms: _71  and  _72
REMARK   31  A    between atoms: _71  and  _74
REMARK   32  A    between atoms: _74  and  _75
REMARK   33  A    between atoms: _77  and  _79
REMARK   34  A    between atoms: _79  and  _80
REMARK   35  A    between atoms: _82  and  _84
REMARK   36  A    between atoms: _84  and  _85
REMARK   37  A    between atoms: _84  and  _87
REMARK   38  A    between atoms: _87  and  _88
REMARK   39  A    between atoms: _88  and  _89
REMARK   40  A    between atoms: _92  and  _94
REMARK   41  A    between atoms: _94  and  _95
REMARK   42  A    between atoms: _94  and  _97
REMARK   43  A    between atoms: _97  and  _98
REMARK   44  A    between atoms: _104  and  _105
REMARK   45  A    between atoms: _110  and  _112
REMARK   46  A    between atoms: _112  and  _113
REMARK   47  A    between atoms: _112  and  _115
REMARK   48  A    between atoms: _115  and  _116
REMARK   49  A    between atoms: _119  and  _121
REMARK   50  A    between atoms: _121  and  _122
REMARK   51  A    between atoms: _125  and  _127
REMARK   52  A    between atoms: _127  and  _128
REMARK   53  A    between atoms: _127  and  _130
REMARK   54  A    between atoms: _130  and  _131
REMARK   55  A    between atoms: _131  and  _132
REMARK   56  A    between atoms: _132  and  _133
REMARK   57  A    between atoms: _142  and  _144
REMARK   58  A    between atoms: _144  and  _145
REMARK   59  A    between atoms: _144  and  _147
REMARK   60  A    between atoms: _147  and  _148
REMARK   61  A    between atoms: _148  and  _149
REMARK   62  A    between atoms: _151  and  _153
REMARK   63  A    between atoms: _153  and  _154
REMARK   64  A    between atoms: _153  and  _156
REMARK   65  A    between atoms: _156  and  _157
REMARK   66  A    between atoms: _167  and  _169
REMARK   67  A    between atoms: _169  and  _170
REMARK   68  A    between atoms: _169  and  _172
REMARK   69  A    between atoms: _172  and  _173
REMARK   70  A    between atoms: _176  and  _178
REMARK   71  A    between atoms: _178  and  _179
REMARK   72  A    between atoms: _178  and  _181
REMARK   73  A    between atoms: _181  and  _182
REMARK   74  A    between atoms: _187  and  _189
REMARK   75  A    between atoms: _189  and  _190
REMARK   76  A    between atoms: _189  and  _192
REMARK   77  A    between atoms: _192  and  _193
REMARK   78  A    between atoms: _198  and  _200
REMARK   79  A    between atoms: _200  and  _201
REMARK   80  A    between atoms: _200  and  _203
REMARK   81  A    between atoms: _203  and  _204
REMARK   82  A    between atoms: _207  and  _209
REMARK   83  A    between atoms: _209  and  _210
REMARK   84  A    between atoms: _213  and  _215
REMARK   85  A    between atoms: _215  and  _216
REMARK   86  A    between atoms: _215  and  _218
REMARK   87  A    between atoms: _218  and  _219
REMARK   88  A    between atoms: _219  and  _220
REMARK   89  A    between atoms: _222  and  _224
REMARK   90  A    between atoms: _224  and  _225
REMARK   91  A    between atoms: _224  and  _227
REMARK   92  A    between atoms: _230  and  _232
REMARK   93  A    between atoms: _232  and  _233
REMARK   94  A    between atoms: _232  and  _235
REMARK   95  A    between atoms: _235  and  _236
REMARK   96  A    between atoms: _239  and  _241
REMARK   97  A    between atoms: _241  and  _242
REMARK   98  A    between atoms: _241  and  _244
REMARK   99  A    between atoms: _244  and  _245
REMARK  100  A    between atoms: _248  and  _250
REMARK  101  A    between atoms: _250  and  _251
REMARK  102  A    between atoms: _250  and  _253
REMARK  103  A    between atoms: _253  and  _254
REMARK  104  A    between atoms: _259  and  _261
REMARK  105  A    between atoms: _261  and  _262
REMARK  106  A    between atoms: _261  and  _264
REMARK  107  A    between atoms: _264  and  _265
REMARK  108  A    between atoms: _270  and  _271
REMARK                            x       y       z     vdW  Elec       q    Type
REMARK                         _______ _______ _______ _____ _____    ______ ____
ROOT
ATOM      1  O   HOH     1      -3.149  12.818 -18.008  0.00  0.00    +0.000 OA
ENDROOT
TORSDOF 0
REMARK  Name = ../refined-set-2016/2qw1/2qw1_pocket.pdb
REMARK  108 active torsions:
REMARK  status: ('A' for Active; 'I' for Inactive)
REMARK    1  A    between atoms: _1  and  _3
REMARK    2  A    between atoms: _3  and  _4
REMARK    3  A    between atoms: _3  and  _6
REMARK    4  A    between atoms: _6  and  _7
REMARK    5  A    between atoms: _12  and  _13
REMARK    6  A    between atoms: _15  and  _17
REMARK    7  A    between atoms: _17  and  _18
REMARK    8  A    between atoms: _17  and  _20
REMARK    9  A    between atoms: _20  and  _21
REMARK   10  A    between atoms: _21  and  _22
REMARK   11  A    between atoms: _22  and  _23
REMARK   12  A    between atoms: _23  and  _24
REMARK   13  A    between atoms: _28  and  _30
REMARK   14  A    between atoms: _30  and  _31
REMARK   15  A    between atoms: _30  and  _33
REMARK   16  A    between atoms: _33  and  _34
REMARK   17  A    between atoms: _37  and  _39
REMARK   18  A    between atoms: _39  and  _40
REMARK   19  A    between atoms: _39  and  _42
REMARK   20  A    between atoms: _42  and  _43
REMARK   21  A    between atoms: _46  and  _48
REMARK   22  A    between atoms: _48  and  _49
REMARK   23  A    between atoms: _48  and  _51
REMARK   24  A    between atoms: _51  and  _52
REMARK   25  A    between atoms: _57  and  _59
REMARK   26  A    between atoms: _59  and  _60
REMARK   27  A    between atoms: _59  and  _62
REMARK   28  A    between atoms: _62  and  _63
REMARK   29  A    between atoms: _69  and  _71
REMARK   30  A    between atoms: _71  and  _72
REMARK   31  A    between atoms: _71  and  _74
REMARK   32  A    between atoms: _74  and  _75
REMARK   33  A    between atoms: _77  and  _79
REMARK   34  A    between atoms: _79  and  _80
REMARK   35  A    between atoms: _82  and  _84
REMARK   36  A    between atoms: _84  and  _85
REMARK   37  A    between atoms: _84  and  _87
REMARK   38  A    between atoms: _87  and  _88
REMARK   39  A    between atoms: _88  and  _89
REMARK   40  A    between atoms: _92  and  _94
REMARK   41  A    between atoms: _94  and  _95
REMARK   42  A    between atoms: _94  and  _97
REMARK   43  A    between atoms: _97  and  _98
REMARK   44  A    between atoms: _104  and  _105
REMARK   45  A    between atoms: _110  and  _112
REMARK   46  A    between atoms: _112  and  _113
REMARK   47  A    between atoms: _112  and  _115
REMARK   48  A    between atoms: _115  and  _116
REMARK   49  A    between atoms: _119  and  _121
REMARK   50  A    between atoms: _121  and  _122
REMARK   51  A    between atoms: _125  and  _127
REMARK   52  A    between atoms: _127  and  _128
REMARK   53  A    between atoms: _127  and  _130
REMARK   54  A    between atoms: _130  and  _131
REMARK   55  A    between atoms: _131  and  _132
REMARK   56  A    between atoms: _132  and  _133
REMARK   57  A    between atoms: _142  and  _144
REMARK   58  A    between atoms: _144  and  _145
REMARK   59  A    between atoms: _144  and  _147
REMARK   60  A    between atoms: _147  and  _148
REMARK   61  A    between atoms: _148  and  _149
REMARK   62  A    between atoms: _151  and  _153
REMARK   63  A    between atoms: _153  and  _154
REMARK   64  A    between atoms: _153  and  _156
REMARK   65  A    between atoms: _156  and  _157
REMARK   66  A    between atoms: _167  and  _169
REMARK   67  A    between atoms: _169  and  _170
REMARK   68  A    between atoms: _169  and  _172
REMARK   69  A    between atoms: _172  and  _173
REMARK   70  A    between atoms: _176  and  _178
REMARK   71  A    between atoms: _178  and  _179
REMARK   72  A    between atoms: _178  and  _181
REMARK   73  A    between atoms: _181  and  _182
REMARK   74  A    between atoms: _187  and  _189
REMARK   75  A    between atoms: _189  and  _190
REMARK   76  A    between atoms: _189  and  _192
REMARK   77  A    between atoms: _192  and  _193
REMARK   78  A    between atoms: _198  and  _200
REMARK   79  A    between atoms: _200  and  _201
REMARK   80  A    between atoms: _200  and  _203
REMARK   81  A    between atoms: _203  and  _204
REMARK   82  A    between atoms: _207  and  _209
REMARK   83  A    between atoms: _209  and  _210
REMARK   84  A    between atoms: _213  and  _215
REMARK   85  A    between atoms: _215  and  _216
REMARK   86  A    between atoms: _215  and  _218
REMARK   87  A    between atoms: _218  and  _219
REMARK   88  A    between atoms: _219  and  _220
REMARK   89  A    between atoms: _222  and  _224
REMARK   90  A    between atoms: _224  and  _225
REMARK   91  A    between atoms: _224  and  _227
REMARK   92  A    between atoms: _230  and  _232
REMARK   93  A    between atoms: _232  and  _233
REMARK   94  A    between atoms: _232  and  _235
REMARK   95  A    between atoms: _235  and  _236
REMARK   96  A    between atoms: _239  and  _241
REMARK   97  A    between atoms: _241  and  _242
REMARK   98  A    between atoms: _241  and  _244
REMARK   99  A    between atoms: _244  and  _245
REMARK  100  A    between atoms: _248  and  _250
REMARK  101  A    between atoms: _250  and  _251
REMARK  102  A    between atoms: _250  and  _253
REMARK  103  A    between atoms: _253  and  _254
REMARK  104  A    between atoms: _259  and  _261
REMARK  105  A    between atoms: _261  and  _262
REMARK  106  A    between atoms: _261  and  _264
REMARK  107  A    between atoms: _264  and  _265
REMARK  108  A    between atoms: _270  and  _271
REMARK                            x       y       z     vdW  Elec       q    Type
REMARK                         _______ _______ _______ _____ _____    ______ ____
ROOT
ATOM      1  O   HOH     1      -5.849  10.510 -20.136  0.00  0.00    +0.000 OA
ENDROOT
TORSDOF 0
REMARK  Name = ../refined-set-2016/2qw1/2qw1_pocket.pdb
REMARK  108 active torsions:
REMARK  status: ('A' for Active; 'I' for Inactive)
REMARK    1  A    between atoms: _1  and  _3
REMARK    2  A    between atoms: _3  and  _4
REMARK    3  A    between atoms: _3  and  _6
REMARK    4  A    between atoms: _6  and  _7
REMARK    5  A    between atoms: _12  and  _13
REMARK    6  A    between atoms: _15  and  _17
REMARK    7  A    between atoms: _17  and  _18
REMARK    8  A    between atoms: _17  and  _20
REMARK    9  A    between atoms: _20  and  _21
REMARK   10  A    between atoms: _21  and  _22
REMARK   11  A    between atoms: _22  and  _23
REMARK   12  A    between atoms: _23  and  _24
REMARK   13  A    between atoms: _28  and  _30
REMARK   14  A    between atoms: _30  and  _31
REMARK   15  A    between atoms: _30  and  _33
REMARK   16  A    between atoms: _33  and  _34
REMARK   17  A    between atoms: _37  and  _39
REMARK   18  A    between atoms: _39  and  _40
REMARK   19  A    between atoms: _39  and  _42
REMARK   20  A    between atoms: _42  and  _43
REMARK   21  A    between atoms: _46  and  _48
REMARK   22  A    between atoms: _48  and  _49
REMARK   23  A    between atoms: _48  and  _51
REMARK   24  A    between atoms: _51  and  _52
REMARK   25  A    between atoms: _57  and  _59
REMARK   26  A    between atoms: _59  and  _60
REMARK   27  A    between atoms: _59  and  _62
REMARK   28  A    between atoms: _62  and  _63
REMARK   29  A    between atoms: _69  and  _71
REMARK   30  A    between atoms: _71  and  _72
REMARK   31  A    between atoms: _71  and  _74
REMARK   32  A    between atoms: _74  and  _75
REMARK   33  A    between atoms: _77  and  _79
REMARK   34  A    between atoms: _79  and  _80
REMARK   35  A    between atoms: _82  and  _84
REMARK   36  A    between atoms: _84  and  _85
REMARK   37  A    between atoms: _84  and  _87
REMARK   38  A    between atoms: _87  and  _88
REMARK   39  A    between atoms: _88  and  _89
REMARK   40  A    between atoms: _92  and  _94
REMARK   41  A    between atoms: _94  and  _95
REMARK   42  A    between atoms: _94  and  _97
REMARK   43  A    between atoms: _97  and  _98
REMARK   44  A    between atoms: _104  and  _105
REMARK   45  A    between atoms: _110  and  _112
REMARK   46  A    between atoms: _112  and  _113
REMARK   47  A    between atoms: _112  and  _115
REMARK   48  A    between atoms: _115  and  _116
REMARK   49  A    between atoms: _119  and  _121
REMARK   50  A    between atoms: _121  and  _122
REMARK   51  A    between atoms: _125  and  _127
REMARK   52  A    between atoms: _127  and  _128
REMARK   53  A    between atoms: _127  and  _130
REMARK   54  A    between atoms: _130  and  _131
REMARK   55  A    between atoms: _131  and  _132
REMARK   56  A    between atoms: _132  and  _133
REMARK   57  A    between atoms: _142  and  _144
REMARK   58  A    between atoms: _144  and  _145
REMARK   59  A    between atoms: _144  and  _147
REMARK   60  A    between atoms: _147  and  _148
REMARK   61  A    between atoms: _148  and  _149
REMARK   62  A    between atoms: _151  and  _153
REMARK   63  A    between atoms: _153  and  _154
REMARK   64  A    between atoms: _153  and  _156
REMARK   65  A    between atoms: _156  and  _157
REMARK   66  A    between atoms: _167  and  _169
REMARK   67  A    between atoms: _169  and  _170
REMARK   68  A    between atoms: _169  and  _172
REMARK   69  A    between atoms: _172  and  _173
REMARK   70  A    between atoms: _176  and  _178
REMARK   71  A    between atoms: _178  and  _179
REMARK   72  A    between atoms: _178  and  _181
REMARK   73  A    between atoms: _181  and  _182
REMARK   74  A    between atoms: _187  and  _189
REMARK   75  A    between atoms: _189  and  _190
REMARK   76  A    between atoms: _189  and  _192
REMARK   77  A    between atoms: _192  and  _193
REMARK   78  A    between atoms: _198  and  _200
REMARK   79  A    between atoms: _200  and  _201
REMARK   80  A    between atoms: _200  and  _203
REMARK   81  A    between atoms: _203  and  _204
REMARK   82  A    between atoms: _207  and  _209
REMARK   83  A    between atoms: _209  and  _210
REMARK   84  A    between atoms: _213  and  _215
REMARK   85  A    between atoms: _215  and  _216
REMARK   86  A    between atoms: _215  and  _218
REMARK   87  A    between atoms: _218  and  _219
REMARK   88  A    between atoms: _219  and  _220
REMARK   89  A    between atoms: _222  and  _224
REMARK   90  A    between atoms: _224  and  _225
REMARK   91  A    between atoms: _224  and  _227
REMARK   92  A    between atoms: _230  and  _232
REMARK   93  A    between atoms: _232  and  _233
REMARK   94  A    between atoms: _232  and  _235
REMARK   95  A    between atoms: _235  and  _236
REMARK   96  A    between atoms: _239  and  _241
REMARK   97  A    between atoms: _241  and  _242
REMARK   98  A    between atoms: _241  and  _244
REMARK   99  A    between atoms: _244  and  _245
REMARK  100  A    between atoms: _248  and  _250
REMARK  101  A    between atoms: _250  and  _251
REMARK  102  A    between atoms: _250  and  _253
REMARK  103  A    between atoms: _253  and  _254
REMARK  104  A    between atoms: _259  and  _261
REMARK  105  A    between atoms: _261  and  _262
REMARK  106  A    between atoms: _261  and  _264
REMARK  107  A    between atoms: _264  and  _265
REMARK  108  A    between atoms: _270  and  _271
REMARK                            x       y       z     vdW  Elec       q    Type
REMARK                         _______ _______ _______ _____ _____    ______ ____
ROOT
ATOM      1  O   HOH     1      -8.150  17.008 -22.249  0.00  0.00    +0.000 OA
ENDROOT
TORSDOF 0
REMARK  Name = ../refined-set-2016/2qw1/2qw1_pocket.pdb
REMARK  108 active torsions:
REMARK  status: ('A' for Active; 'I' for Inactive)
REMARK    1  A    between atoms: _1  and  _3
REMARK    2  A    between atoms: _3  and  _4
REMARK    3  A    between atoms: _3  and  _6
REMARK    4  A    between atoms: _6  and  _7
REMARK    5  A    between atoms: _12  and  _13
REMARK    6  A    between atoms: _15  and  _17
REMARK    7  A    between atoms: _17  and  _18
REMARK    8  A    between atoms: _17  and  _20
REMARK    9  A    between atoms: _20  and  _21
REMARK   10  A    between atoms: _21  and  _22
REMARK   11  A    between atoms: _22  and  _23
REMARK   12  A    between atoms: _23  and  _24
REMARK   13  A    between atoms: _28  and  _30
REMARK   14  A    between atoms: _30  and  _31
REMARK   15  A    between atoms: _30  and  _33
REMARK   16  A    between atoms: _33  and  _34
REMARK   17  A    between atoms: _37  and  _39
REMARK   18  A    between atoms: _39  and  _40
REMARK   19  A    between atoms: _39  and  _42
REMARK   20  A    between atoms: _42  and  _43
REMARK   21  A    between atoms: _46  and  _48
REMARK   22  A    between atoms: _48  and  _49
REMARK   23  A    between atoms: _48  and  _51
REMARK   24  A    between atoms: _51  and  _52
REMARK   25  A    between atoms: _57  and  _59
REMARK   26  A    between atoms: _59  and  _60
REMARK   27  A    between atoms: _59  and  _62
REMARK   28  A    between atoms: _62  and  _63
REMARK   29  A    between atoms: _69  and  _71
REMARK   30  A    between atoms: _71  and  _72
REMARK   31  A    between atoms: _71  and  _74
REMARK   32  A    between atoms: _74  and  _75
REMARK   33  A    between atoms: _77  and  _79
REMARK   34  A    between atoms: _79  and  _80
REMARK   35  A    between atoms: _82  and  _84
REMARK   36  A    between atoms: _84  and  _85
REMARK   37  A    between atoms: _84  and  _87
REMARK   38  A    between atoms: _87  and  _88
REMARK   39  A    between atoms: _88  and  _89
REMARK   40  A    between atoms: _92  and  _94
REMARK   41  A    between atoms: _94  and  _95
REMARK   42  A    between atoms: _94  and  _97
REMARK   43  A    between atoms: _97  and  _98
REMARK   44  A    between atoms: _104  and  _105
REMARK   45  A    between atoms: _110  and  _112
REMARK   46  A    between atoms: _112  and  _113
REMARK   47  A    between atoms: _112  and  _115
REMARK   48  A    between atoms: _115  and  _116
REMARK   49  A    between atoms: _119  and  _121
REMARK   50  A    between atoms: _121  and  _122
REMARK   51  A    between atoms: _125  and  _127
REMARK   52  A    between atoms: _127  and  _128
REMARK   53  A    between atoms: _127  and  _130
REMARK   54  A    between atoms: _130  and  _131
REMARK   55  A    between atoms: _131  and  _132
REMARK   56  A    between atoms: _132  and  _133
REMARK   57  A    between atoms: _142  and  _144
REMARK   58  A    between atoms: _144  and  _145
REMARK   59  A    between atoms: _144  and  _147
REMARK   60  A    between atoms: _147  and  _148
REMARK   61  A    between atoms: _148  and  _149
REMARK   62  A    between atoms: _151  and  _153
REMARK   63  A    between atoms: _153  and  _154
REMARK   64  A    between atoms: _153  and  _156
REMARK   65  A    between atoms: _156  and  _157
REMARK   66  A    between atoms: _167  and  _169
REMARK   67  A    between atoms: _169  and  _170
REMARK   68  A    between atoms: _169  and  _172
REMARK   69  A    between atoms: _172  and  _173
REMARK   70  A    between atoms: _176  and  _178
REMARK   71  A    between atoms: _178  and  _179
REMARK   72  A    between atoms: _178  and  _181
REMARK   73  A    between atoms: _181  and  _182
REMARK   74  A    between atoms: _187  and  _189
REMARK   75  A    between atoms: _189  and  _190
REMARK   76  A    between atoms: _189  and  _192
REMARK   77  A    between atoms: _192  and  _193
REMARK   78  A    between atoms: _198  and  _200
REMARK   79  A    between atoms: _200  and  _201
REMARK   80  A    between atoms: _200  and  _203
REMARK   81  A    between atoms: _203  and  _204
REMARK   82  A    between atoms: _207  and  _209
REMARK   83  A    between atoms: _209  and  _210
REMARK   84  A    between atoms: _213  and  _215
REMARK   85  A    between atoms: _215  and  _216
REMARK   86  A    between atoms: _215  and  _218
REMARK   87  A    between atoms: _218  and  _219
REMARK   88  A    between atoms: _219  and  _220
REMARK   89  A    between atoms: _222  and  _224
REMARK   90  A    between atoms: _224  and  _225
REMARK   91  A    between atoms: _224  and  _227
REMARK   92  A    between atoms: _230  and  _232
REMARK   93  A    between atoms: _232  and  _233
REMARK   94  A    between atoms: _232  and  _235
REMARK   95  A    between atoms: _235  and  _236
REMARK   96  A    between atoms: _239  and  _241
REMARK   97  A    between atoms: _241  and  _242
REMARK   98  A    between atoms: _241  and  _244
REMARK   99  A    between atoms: _244  and  _245
REMARK  100  A    between atoms: _248  and  _250
REMARK  101  A    between atoms: _250  and  _251
REMARK  102  A    between atoms: _250  and  _253
REMARK  103  A    between atoms: _253  and  _254
REMARK  104  A    between atoms: _259  and  _261
REMARK  105  A    between atoms: _261  and  _262
REMARK  106  A    between atoms: _261  and  _264
REMARK  107  A    between atoms: _264  and  _265
REMARK  108  A    between atoms: _270  and  _271
REMARK                            x       y       z     vdW  Elec       q    Type
REMARK                         _______ _______ _______ _____ _____    ______ ____
ROOT
ATOM      1  O   HOH     1     -11.127  12.408 -17.797  0.00  0.00    +0.000 OA
ENDROOT
TORSDOF 0
REMARK  Name = ../refined-set-2016/2qw1/2qw1_pocket.pdb
REMARK  108 active torsions:
REMARK  status: ('A' for Active; 'I' for Inactive)
REMARK    1  A    between atoms: _1  and  _3
REMARK    2  A    between atoms: _3  and  _4
REMARK    3  A    between atoms: _3  and  _6
REMARK    4  A    between atoms: _6  and  _7
REMARK    5  A    between atoms: _12  and  _13
REMARK    6  A    between atoms: _15  and  _17
REMARK    7  A    between atoms: _17  and  _18
REMARK    8  A    between atoms: _17  and  _20
REMARK    9  A    between atoms: _20  and  _21
REMARK   10  A    between atoms: _21  and  _22
REMARK   11  A    between atoms: _22  and  _23
REMARK   12  A    between atoms: _23  and  _24
REMARK   13  A    between atoms: _28  and  _30
REMARK   14  A    between atoms: _30  and  _31
REMARK   15  A    between atoms: _30  and  _33
REMARK   16  A    between atoms: _33  and  _34
REMARK   17  A    between atoms: _37  and  _39
REMARK   18  A    between atoms: _39  and  _40
REMARK   19  A    between atoms: _39  and  _42
REMARK   20  A    between atoms: _42  and  _43
REMARK   21  A    between atoms: _46  and  _48
REMARK   22  A    between atoms: _48  and  _49
REMARK   23  A    between atoms: _48  and  _51
REMARK   24  A    between atoms: _51  and  _52
REMARK   25  A    between atoms: _57  and  _59
REMARK   26  A    between atoms: _59  and  _60
REMARK   27  A    between atoms: _59  and  _62
REMARK   28  A    between atoms: _62  and  _63
REMARK   29  A    between atoms: _69  and  _71
REMARK   30  A    between atoms: _71  and  _72
REMARK   31  A    between atoms: _71  and  _74
REMARK   32  A    between atoms: _74  and  _75
REMARK   33  A    between atoms: _77  and  _79
REMARK   34  A    between atoms: _79  and  _80
REMARK   35  A    between atoms: _82  and  _84
REMARK   36  A    between atoms: _84  and  _85
REMARK   37  A    between atoms: _84  and  _87
REMARK   38  A    between atoms: _87  and  _88
REMARK   39  A    between atoms: _88  and  _89
REMARK   40  A    between atoms: _92  and  _94
REMARK   41  A    between atoms: _94  and  _95
REMARK   42  A    between atoms: _94  and  _97
REMARK   43  A    between atoms: _97  and  _98
REMARK   44  A    between atoms: _104  and  _105
REMARK   45  A    between atoms: _110  and  _112
REMARK   46  A    between atoms: _112  and  _113
REMARK   47  A    between atoms: _112  and  _115
REMARK   48  A    between atoms: _115  and  _116
REMARK   49  A    between atoms: _119  and  _121
REMARK   50  A    between atoms: _121  and  _122
REMARK   51  A    between atoms: _125  and  _127
REMARK   52  A    between atoms: _127  and  _128
REMARK   53  A    between atoms: _127  and  _130
REMARK   54  A    between atoms: _130  and  _131
REMARK   55  A    between atoms: _131  and  _132
REMARK   56  A    between atoms: _132  and  _133
REMARK   57  A    between atoms: _142  and  _144
REMARK   58  A    between atoms: _144  and  _145
REMARK   59  A    between atoms: _144  and  _147
REMARK   60  A    between atoms: _147  and  _148
REMARK   61  A    between atoms: _148  and  _149
REMARK   62  A    between atoms: _151  and  _153
REMARK   63  A    between atoms: _153  and  _154
REMARK   64  A    between atoms: _153  and  _156
REMARK   65  A    between atoms: _156  and  _157
REMARK   66  A    between atoms: _167  and  _169
REMARK   67  A    between atoms: _169  and  _170
REMARK   68  A    between atoms: _169  and  _172
REMARK   69  A    between atoms: _172  and  _173
REMARK   70  A    between atoms: _176  and  _178
REMARK   71  A    between atoms: _178  and  _179
REMARK   72  A    between atoms: _178  and  _181
REMARK   73  A    between atoms: _181  and  _182
REMARK   74  A    between atoms: _187  and  _189
REMARK   75  A    between atoms: _189  and  _190
REMARK   76  A    between atoms: _189  and  _192
REMARK   77  A    between atoms: _192  and  _193
REMARK   78  A    between atoms: _198  and  _200
REMARK   79  A    between atoms: _200  and  _201
REMARK   80  A    between atoms: _200  and  _203
REMARK   81  A    between atoms: _203  and  _204
REMARK   82  A    between atoms: _207  and  _209
REMARK   83  A    between atoms: _209  and  _210
REMARK   84  A    between atoms: _213  and  _215
REMARK   85  A    between atoms: _215  and  _216
REMARK   86  A    between atoms: _215  and  _218
REMARK   87  A    between atoms: _218  and  _219
REMARK   88  A    between atoms: _219  and  _220
REMARK   89  A    between atoms: _222  and  _224
REMARK   90  A    between atoms: _224  and  _225
REMARK   91  A    between atoms: _224  and  _227
REMARK   92  A    between atoms: _230  and  _232
REMARK   93  A    between atoms: _232  and  _233
REMARK   94  A    between atoms: _232  and  _235
REMARK   95  A    between atoms: _235  and  _236
REMARK   96  A    between atoms: _239  and  _241
REMARK   97  A    between atoms: _241  and  _242
REMARK   98  A    between atoms: _241  and  _244
REMARK   99  A    between atoms: _244  and  _245
REMARK  100  A    between atoms: _248  and  _250
REMARK  101  A    between atoms: _250  and  _251
REMARK  102  A    between atoms: _250  and  _253
REMARK  103  A    between atoms: _253  and  _254
REMARK  104  A    between atoms: _259  and  _261
REMARK  105  A    between atoms: _261  and  _262
REMARK  106  A    between atoms: _261  and  _264
REMARK  107  A    between atoms: _264  and  _265
REMARK  108  A    between atoms: _270  and  _271
REMARK                            x       y       z     vdW  Elec       q    Type
REMARK                         _______ _______ _______ _____ _____    ______ ____
ROOT
ATOM      1  O   HOH     1      -5.975  19.290 -21.826  0.00  0.00    +0.000 OA
ENDROOT
TORSDOF 0
REMARK  Name = ../refined-set-2016/2qw1/2qw1_pocket.pdb
REMARK  108 active torsions:
REMARK  status: ('A' for Active; 'I' for Inactive)
REMARK    1  A    between atoms: _1  and  _3
REMARK    2  A    between atoms: _3  and  _4
REMARK    3  A    between atoms: _3  and  _6
REMARK    4  A    between atoms: _6  and  _7
REMARK    5  A    between atoms: _12  and  _13
REMARK    6  A    between atoms: _15  and  _17
REMARK    7  A    between atoms: _17  and  _18
REMARK    8  A    between atoms: _17  and  _20
REMARK    9  A    between atoms: _20  and  _21
REMARK   10  A    between atoms: _21  and  _22
REMARK   11  A    between atoms: _22  and  _23
REMARK   12  A    between atoms: _23  and  _24
REMARK   13  A    between atoms: _28  and  _30
REMARK   14  A    between atoms: _30  and  _31
REMARK   15  A    between atoms: _30  and  _33
REMARK   16  A    between atoms: _33  and  _34
REMARK   17  A    between atoms: _37  and  _39
REMARK   18  A    between atoms: _39  and  _40
REMARK   19  A    between atoms: _39  and  _42
REMARK   20  A    between atoms: _42  and  _43
REMARK   21  A    between atoms: _46  and  _48
REMARK   22  A    between atoms: _48  and  _49
REMARK   23  A    between atoms: _48  and  _51
REMARK   24  A    between atoms: _51  and  _52
REMARK   25  A    between atoms: _57  and  _59
REMARK   26  A    between atoms: _59  and  _60
REMARK   27  A    between atoms: _59  and  _62
REMARK   28  A    between atoms: _62  and  _63
REMARK   29  A    between atoms: _69  and  _71
REMARK   30  A    between atoms: _71  and  _72
REMARK   31  A    between atoms: _71  and  _74
REMARK   32  A    between atoms: _74  and  _75
REMARK   33  A    between atoms: _77  and  _79
REMARK   34  A    between atoms: _79  and  _80
REMARK   35  A    between atoms: _82  and  _84
REMARK   36  A    between atoms: _84  and  _85
REMARK   37  A    between atoms: _84  and  _87
REMARK   38  A    between atoms: _87  and  _88
REMARK   39  A    between atoms: _88  and  _89
REMARK   40  A    between atoms: _92  and  _94
REMARK   41  A    between atoms: _94  and  _95
REMARK   42  A    between atoms: _94  and  _97
REMARK   43  A    between atoms: _97  and  _98
REMARK   44  A    between atoms: _104  and  _105
REMARK   45  A    between atoms: _110  and  _112
REMARK   46  A    between atoms: _112  and  _113
REMARK   47  A    between atoms: _112  and  _115
REMARK   48  A    between atoms: _115  and  _116
REMARK   49  A    between atoms: _119  and  _121
REMARK   50  A    between atoms: _121  and  _122
REMARK   51  A    between atoms: _125  and  _127
REMARK   52  A    between atoms: _127  and  _128
REMARK   53  A    between atoms: _127  and  _130
REMARK   54  A    between atoms: _130  and  _131
REMARK   55  A    between atoms: _131  and  _132
REMARK   56  A    between atoms: _132  and  _133
REMARK   57  A    between atoms: _142  and  _144
REMARK   58  A    between atoms: _144  and  _145
REMARK   59  A    between atoms: _144  and  _147
REMARK   60  A    between atoms: _147  and  _148
REMARK   61  A    between atoms: _148  and  _149
REMARK   62  A    between atoms: _151  and  _153
REMARK   63  A    between atoms: _153  and  _154
REMARK   64  A    between atoms: _153  and  _156
REMARK   65  A    between atoms: _156  and  _157
REMARK   66  A    between atoms: _167  and  _169
REMARK   67  A    between atoms: _169  and  _170
REMARK   68  A    between atoms: _169  and  _172
REMARK   69  A    between atoms: _172  and  _173
REMARK   70  A    between atoms: _176  and  _178
REMARK   71  A    between atoms: _178  and  _179
REMARK   72  A    between atoms: _178  and  _181
REMARK   73  A    between atoms: _181  and  _182
REMARK   74  A    between atoms: _187  and  _189
REMARK   75  A    between atoms: _189  and  _190
REMARK   76  A    between atoms: _189  and  _192
REMARK   77  A    between atoms: _192  and  _193
REMARK   78  A    between atoms: _198  and  _200
REMARK   79  A    between atoms: _200  and  _201
REMARK   80  A    between atoms: _200  and  _203
REMARK   81  A    between atoms: _203  and  _204
REMARK   82  A    between atoms: _207  and  _209
REMARK   83  A    between atoms: _209  and  _210
REMARK   84  A    between atoms: _213  and  _215
REMARK   85  A    between atoms: _215  and  _216
REMARK   86  A    between atoms: _215  and  _218
REMARK   87  A    between atoms: _218  and  _219
REMARK   88  A    between atoms: _219  and  _220
REMARK   89  A    between atoms: _222  and  _224
REMARK   90  A    between atoms: _224  and  _225
REMARK   91  A    between atoms: _224  and  _227
REMARK   92  A    between atoms: _230  and  _232
REMARK   93  A    between atoms: _232  and  _233
REMARK   94  A    between atoms: _232  and  _235
REMARK   95  A    between atoms: _235  and  _236
REMARK   96  A    between atoms: _239  and  _241
REMARK   97  A    between atoms: _241  and  _242
REMARK   98  A    between atoms: _241  and  _244
REMARK   99  A    between atoms: _244  and  _245
REMARK  100  A    between atoms: _248  and  _250
REMARK  101  A    between atoms: _250  and  _251
REMARK  102  A    between atoms: _250  and  _253
REMARK  103  A    between atoms: _253  and  _254
REMARK  104  A    between atoms: _259  and  _261
REMARK  105  A    between atoms: _261  and  _262
REMARK  106  A    between atoms: _261  and  _264
REMARK  107  A    between atoms: _264  and  _265
REMARK  108  A    between atoms: _270  and  _271
REMARK                            x       y       z     vdW  Elec       q    Type
REMARK                         _______ _______ _______ _____ _____    ______ ____
ROOT
ATOM      1  O   HOH     1     -11.483  12.552 -22.979  0.00  0.00    +0.000 OA
ENDROOT
TORSDOF 0
REMARK  Name = ../refined-set-2016/2qw1/2qw1_pocket.pdb
REMARK  108 active torsions:
REMARK  status: ('A' for Active; 'I' for Inactive)
REMARK    1  A    between atoms: _1  and  _3
REMARK    2  A    between atoms: _3  and  _4
REMARK    3  A    between atoms: _3  and  _6
REMARK    4  A    between atoms: _6  and  _7
REMARK    5  A    between atoms: _12  and  _13
REMARK    6  A    between atoms: _15  and  _17
REMARK    7  A    between atoms: _17  and  _18
REMARK    8  A    between atoms: _17  and  _20
REMARK    9  A    between atoms: _20  and  _21
REMARK   10  A    between atoms: _21  and  _22
REMARK   11  A    between atoms: _22  and  _23
REMARK   12  A    between atoms: _23  and  _24
REMARK   13  A    between atoms: _28  and  _30
REMARK   14  A    between atoms: _30  and  _31
REMARK   15  A    between atoms: _30  and  _33
REMARK   16  A    between atoms: _33  and  _34
REMARK   17  A    between atoms: _37  and  _39
REMARK   18  A    between atoms: _39  and  _40
REMARK   19  A    between atoms: _39  and  _42
REMARK   20  A    between atoms: _42  and  _43
REMARK   21  A    between atoms: _46  and  _48
REMARK   22  A    between atoms: _48  and  _49
REMARK   23  A    between atoms: _48  and  _51
REMARK   24  A    between atoms: _51  and  _52
REMARK   25  A    between atoms: _57  and  _59
REMARK   26  A    between atoms: _59  and  _60
REMARK   27  A    between atoms: _59  and  _62
REMARK   28  A    between atoms: _62  and  _63
REMARK   29  A    between atoms: _69  and  _71
REMARK   30  A    between atoms: _71  and  _72
REMARK   31  A    between atoms: _71  and  _74
REMARK   32  A    between atoms: _74  and  _75
REMARK   33  A    between atoms: _77  and  _79
REMARK   34  A    between atoms: _79  and  _80
REMARK   35  A    between atoms: _82  and  _84
REMARK   36  A    between atoms: _84  and  _85
REMARK   37  A    between atoms: _84  and  _87
REMARK   38  A    between atoms: _87  and  _88
REMARK   39  A    between atoms: _88  and  _89
REMARK   40  A    between atoms: _92  and  _94
REMARK   41  A    between atoms: _94  and  _95
REMARK   42  A    between atoms: _94  and  _97
REMARK   43  A    between atoms: _97  and  _98
REMARK   44  A    between atoms: _104  and  _105
REMARK   45  A    between atoms: _110  and  _112
REMARK   46  A    between atoms: _112  and  _113
REMARK   47  A    between atoms: _112  and  _115
REMARK   48  A    between atoms: _115  and  _116
REMARK   49  A    between atoms: _119  and  _121
REMARK   50  A    between atoms: _121  and  _122
REMARK   51  A    between atoms: _125  and  _127
REMARK   52  A    between atoms: _127  and  _128
REMARK   53  A    between atoms: _127  and  _130
REMARK   54  A    between atoms: _130  and  _131
REMARK   55  A    between atoms: _131  and  _132
REMARK   56  A    between atoms: _132  and  _133
REMARK   57  A    between atoms: _142  and  _144
REMARK   58  A    between atoms: _144  and  _145
REMARK   59  A    between atoms: _144  and  _147
REMARK   60  A    between atoms: _147  and  _148
REMARK   61  A    between atoms: _148  and  _149
REMARK   62  A    between atoms: _151  and  _153
REMARK   63  A    between atoms: _153  and  _154
REMARK   64  A    between atoms: _153  and  _156
REMARK   65  A    between atoms: _156  and  _157
REMARK   66  A    between atoms: _167  and  _169
REMARK   67  A    between atoms: _169  and  _170
REMARK   68  A    between atoms: _169  and  _172
REMARK   69  A    between atoms: _172  and  _173
REMARK   70  A    between atoms: _176  and  _178
REMARK   71  A    between atoms: _178  and  _179
REMARK   72  A    between atoms: _178  and  _181
REMARK   73  A    between atoms: _181  and  _182
REMARK   74  A    between atoms: _187  and  _189
REMARK   75  A    between atoms: _189  and  _190
REMARK   76  A    between atoms: _189  and  _192
REMARK   77  A    between atoms: _192  and  _193
REMARK   78  A    between atoms: _198  and  _200
REMARK   79  A    between atoms: _200  and  _201
REMARK   80  A    between atoms: _200  and  _203
REMARK   81  A    between atoms: _203  and  _204
REMARK   82  A    between atoms: _207  and  _209
REMARK   83  A    between atoms: _209  and  _210
REMARK   84  A    between atoms: _213  and  _215
REMARK   85  A    between atoms: _215  and  _216
REMARK   86  A    between atoms: _215  and  _218
REMARK   87  A    between atoms: _218  and  _219
REMARK   88  A    between atoms: _219  and  _220
REMARK   89  A    between atoms: _222  and  _224
REMARK   90  A    between atoms: _224  and  _225
REMARK   91  A    between atoms: _224  and  _227
REMARK   92  A    between atoms: _230  and  _232
REMARK   93  A    between atoms: _232  and  _233
REMARK   94  A    between atoms: _232  and  _235
REMARK   95  A    between atoms: _235  and  _236
REMARK   96  A    between atoms: _239  and  _241
REMARK   97  A    between atoms: _241  and  _242
REMARK   98  A    between atoms: _241  and  _244
REMARK   99  A    between atoms: _244  and  _245
REMARK  100  A    between atoms: _248  and  _250
REMARK  101  A    between atoms: _250  and  _251
REMARK  102  A    between atoms: _250  and  _253
REMARK  103  A    between atoms: _253  and  _254
REMARK  104  A    between atoms: _259  and  _261
REMARK  105  A    between atoms: _261  and  _262
REMARK  106  A    between atoms: _261  and  _264
REMARK  107  A    between atoms: _264  and  _265
REMARK  108  A    between atoms: _270  and  _271
REMARK                            x       y       z     vdW  Elec       q    Type
REMARK                         _______ _______ _______ _____ _____    ______ ____
ROOT
ATOM      1  O   HOH     1      -1.317  18.930 -17.369  0.00  0.00    +0.000 OA
ENDROOT
TORSDOF 0
REMARK  Name = ../refined-set-2016/2qw1/2qw1_pocket.pdb
REMARK  108 active torsions:
REMARK  status: ('A' for Active; 'I' for Inactive)
REMARK    1  A    between atoms: _1  and  _3
REMARK    2  A    between atoms: _3  and  _4
REMARK    3  A    between atoms: _3  and  _6
REMARK    4  A    between atoms: _6  and  _7
REMARK    5  A    between atoms: _12  and  _13
REMARK    6  A    between atoms: _15  and  _17
REMARK    7  A    between atoms: _17  and  _18
REMARK    8  A    between atoms: _17  and  _20
REMARK    9  A    between atoms: _20  and  _21
REMARK   10  A    between atoms: _21  and  _22
REMARK   11  A    between atoms: _22  and  _23
REMARK   12  A    between atoms: _23  and  _24
REMARK   13  A    between atoms: _28  and  _30
REMARK   14  A    between atoms: _30  and  _31
REMARK   15  A    between atoms: _30  and  _33
REMARK   16  A    between atoms: _33  and  _34
REMARK   17  A    between atoms: _37  and  _39
REMARK   18  A    between atoms: _39  and  _40
REMARK   19  A    between atoms: _39  and  _42
REMARK   20  A    between atoms: _42  and  _43
REMARK   21  A    between atoms: _46  and  _48
REMARK   22  A    between atoms: _48  and  _49
REMARK   23  A    between atoms: _48  and  _51
REMARK   24  A    between atoms: _51  and  _52
REMARK   25  A    between atoms: _57  and  _59
REMARK   26  A    between atoms: _59  and  _60
REMARK   27  A    between atoms: _59  and  _62
REMARK   28  A    between atoms: _62  and  _63
REMARK   29  A    between atoms: _69  and  _71
REMARK   30  A    between atoms: _71  and  _72
REMARK   31  A    between atoms: _71  and  _74
REMARK   32  A    between atoms: _74  and  _75
REMARK   33  A    between atoms: _77  and  _79
REMARK   34  A    between atoms: _79  and  _80
REMARK   35  A    between atoms: _82  and  _84
REMARK   36  A    between atoms: _84  and  _85
REMARK   37  A    between atoms: _84  and  _87
REMARK   38  A    between atoms: _87  and  _88
REMARK   39  A    between atoms: _88  and  _89
REMARK   40  A    between atoms: _92  and  _94
REMARK   41  A    between atoms: _94  and  _95
REMARK   42  A    between atoms: _94  and  _97
REMARK   43  A    between atoms: _97  and  _98
REMARK   44  A    between atoms: _104  and  _105
REMARK   45  A    between atoms: _110  and  _112
REMARK   46  A    between atoms: _112  and  _113
REMARK   47  A    between atoms: _112  and  _115
REMARK   48  A    between atoms: _115  and  _116
REMARK   49  A    between atoms: _119  and  _121
REMARK   50  A    between atoms: _121  and  _122
REMARK   51  A    between atoms: _125  and  _127
REMARK   52  A    between atoms: _127  and  _128
REMARK   53  A    between atoms: _127  and  _130
REMARK   54  A    between atoms: _130  and  _131
REMARK   55  A    between atoms: _131  and  _132
REMARK   56  A    between atoms: _132  and  _133
REMARK   57  A    between atoms: _142  and  _144
REMARK   58  A    between atoms: _144  and  _145
REMARK   59  A    between atoms: _144  and  _147
REMARK   60  A    between atoms: _147  and  _148
REMARK   61  A    between atoms: _148  and  _149
REMARK   62  A    between atoms: _151  and  _153
REMARK   63  A    between atoms: _153  and  _154
REMARK   64  A    between atoms: _153  and  _156
REMARK   65  A    between atoms: _156  and  _157
REMARK   66  A    between atoms: _167  and  _169
REMARK   67  A    between atoms: _169  and  _170
REMARK   68  A    between atoms: _169  and  _172
REMARK   69  A    between atoms: _172  and  _173
REMARK   70  A    between atoms: _176  and  _178
REMARK   71  A    between atoms: _178  and  _179
REMARK   72  A    between atoms: _178  and  _181
REMARK   73  A    between atoms: _181  and  _182
REMARK   74  A    between atoms: _187  and  _189
REMARK   75  A    between atoms: _189  and  _190
REMARK   76  A    between atoms: _189  and  _192
REMARK   77  A    between atoms: _192  and  _193
REMARK   78  A    between atoms: _198  and  _200
REMARK   79  A    between atoms: _200  and  _201
REMARK   80  A    between atoms: _200  and  _203
REMARK   81  A    between atoms: _203  and  _204
REMARK   82  A    between atoms: _207  and  _209
REMARK   83  A    between atoms: _209  and  _210
REMARK   84  A    between atoms: _213  and  _215
REMARK   85  A    between atoms: _215  and  _216
REMARK   86  A    between atoms: _215  and  _218
REMARK   87  A    between atoms: _218  and  _219
REMARK   88  A    between atoms: _219  and  _220
REMARK   89  A    between atoms: _222  and  _224
REMARK   90  A    between atoms: _224  and  _225
REMARK   91  A    between atoms: _224  and  _227
REMARK   92  A    between atoms: _230  and  _232
REMARK   93  A    between atoms: _232  and  _233
REMARK   94  A    between atoms: _232  and  _235
REMARK   95  A    between atoms: _235  and  _236
REMARK   96  A    between atoms: _239  and  _241
REMARK   97  A    between atoms: _241  and  _242
REMARK   98  A    between atoms: _241  and  _244
REMARK   99  A    between atoms: _244  and  _245
REMARK  100  A    between atoms: _248  and  _250
REMARK  101  A    between atoms: _250  and  _251
REMARK  102  A    between atoms: _250  and  _253
REMARK  103  A    between atoms: _253  and  _254
REMARK  104  A    between atoms: _259  and  _261
REMARK  105  A    between atoms: _261  and  _262
REMARK  106  A    between atoms: _261  and  _264
REMARK  107  A    between atoms: _264  and  _265
REMARK  108  A    between atoms: _270  and  _271
REMARK                            x       y       z     vdW  Elec       q    Type
REMARK                         _______ _______ _______ _____ _____    ______ ____
ROOT
ATOM      1  O   HOH     1      -4.030  19.384 -13.540  0.00  0.00    +0.000 OA
ENDROOT
TORSDOF 0
REMARK  Name = ../refined-set-2016/2qw1/2qw1_pocket.pdb
REMARK  108 active torsions:
REMARK  status: ('A' for Active; 'I' for Inactive)
REMARK    1  A    between atoms: _1  and  _3
REMARK    2  A    between atoms: _3  and  _4
REMARK    3  A    between atoms: _3  and  _6
REMARK    4  A    between atoms: _6  and  _7
REMARK    5  A    between atoms: _12  and  _13
REMARK    6  A    between atoms: _15  and  _17
REMARK    7  A    between atoms: _17  and  _18
REMARK    8  A    between atoms: _17  and  _20
REMARK    9  A    between atoms: _20  and  _21
REMARK   10  A    between atoms: _21  and  _22
REMARK   11  A    between atoms: _22  and  _23
REMARK   12  A    between atoms: _23  and  _24
REMARK   13  A    between atoms: _28  and  _30
REMARK   14  A    between atoms: _30  and  _31
REMARK   15  A    between atoms: _30  and  _33
REMARK   16  A    between atoms: _33  and  _34
REMARK   17  A    between atoms: _37  and  _39
REMARK   18  A    between atoms: _39  and  _40
REMARK   19  A    between atoms: _39  and  _42
REMARK   20  A    between atoms: _42  and  _43
REMARK   21  A    between atoms: _46  and  _48
REMARK   22  A    between atoms: _48  and  _49
REMARK   23  A    between atoms: _48  and  _51
REMARK   24  A    between atoms: _51  and  _52
REMARK   25  A    between atoms: _57  and  _59
REMARK   26  A    between atoms: _59  and  _60
REMARK   27  A    between atoms: _59  and  _62
REMARK   28  A    between atoms: _62  and  _63
REMARK   29  A    between atoms: _69  and  _71
REMARK   30  A    between atoms: _71  and  _72
REMARK   31  A    between atoms: _71  and  _74
REMARK   32  A    between atoms: _74  and  _75
REMARK   33  A    between atoms: _77  and  _79
REMARK   34  A    between atoms: _79  and  _80
REMARK   35  A    between atoms: _82  and  _84
REMARK   36  A    between atoms: _84  and  _85
REMARK   37  A    between atoms: _84  and  _87
REMARK   38  A    between atoms: _87  and  _88
REMARK   39  A    between atoms: _88  and  _89
REMARK   40  A    between atoms: _92  and  _94
REMARK   41  A    between atoms: _94  and  _95
REMARK   42  A    between atoms: _94  and  _97
REMARK   43  A    between atoms: _97  and  _98
REMARK   44  A    between atoms: _104  and  _105
REMARK   45  A    between atoms: _110  and  _112
REMARK   46  A    between atoms: _112  and  _113
REMARK   47  A    between atoms: _112  and  _115
REMARK   48  A    between atoms: _115  and  _116
REMARK   49  A    between atoms: _119  and  _121
REMARK   50  A    between atoms: _121  and  _122
REMARK   51  A    between atoms: _125  and  _127
REMARK   52  A    between atoms: _127  and  _128
REMARK   53  A    between atoms: _127  and  _130
REMARK   54  A    between atoms: _130  and  _131
REMARK   55  A    between atoms: _131  and  _132
REMARK   56  A    between atoms: _132  and  _133
REMARK   57  A    between atoms: _142  and  _144
REMARK   58  A    between atoms: _144  and  _145
REMARK   59  A    between atoms: _144  and  _147
REMARK   60  A    between atoms: _147  and  _148
REMARK   61  A    between atoms: _148  and  _149
REMARK   62  A    between atoms: _151  and  _153
REMARK   63  A    between atoms: _153  and  _154
REMARK   64  A    between atoms: _153  and  _156
REMARK   65  A    between atoms: _156  and  _157
REMARK   66  A    between atoms: _167  and  _169
REMARK   67  A    between atoms: _169  and  _170
REMARK   68  A    between atoms: _169  and  _172
REMARK   69  A    between atoms: _172  and  _173
REMARK   70  A    between atoms: _176  and  _178
REMARK   71  A    between atoms: _178  and  _179
REMARK   72  A    between atoms: _178  and  _181
REMARK   73  A    between atoms: _181  and  _182
REMARK   74  A    between atoms: _187  and  _189
REMARK   75  A    between atoms: _189  and  _190
REMARK   76  A    between atoms: _189  and  _192
REMARK   77  A    between atoms: _192  and  _193
REMARK   78  A    between atoms: _198  and  _200
REMARK   79  A    between atoms: _200  and  _201
REMARK   80  A    between atoms: _200  and  _203
REMARK   81  A    between atoms: _203  and  _204
REMARK   82  A    between atoms: _207  and  _209
REMARK   83  A    between atoms: _209  and  _210
REMARK   84  A    between atoms: _213  and  _215
REMARK   85  A    between atoms: _215  and  _216
REMARK   86  A    between atoms: _215  and  _218
REMARK   87  A    between atoms: _218  and  _219
REMARK   88  A    between atoms: _219  and  _220
REMARK   89  A    between atoms: _222  and  _224
REMARK   90  A    between atoms: _224  and  _225
REMARK   91  A    between atoms: _224  and  _227
REMARK   92  A    between atoms: _230  and  _232
REMARK   93  A    between atoms: _232  and  _233
REMARK   94  A    between atoms: _232  and  _235
REMARK   95  A    between atoms: _235  and  _236
REMARK   96  A    between atoms: _239  and  _241
REMARK   97  A    between atoms: _241  and  _242
REMARK   98  A    between atoms: _241  and  _244
REMARK   99  A    between atoms: _244  and  _245
REMARK  100  A    between atoms: _248  and  _250
REMARK  101  A    between atoms: _250  and  _251
REMARK  102  A    between atoms: _250  and  _253
REMARK  103  A    between atoms: _253  and  _254
REMARK  104  A    between atoms: _259  and  _261
REMARK  105  A    between atoms: _261  and  _262
REMARK  106  A    between atoms: _261  and  _264
REMARK  107  A    between atoms: _264  and  _265
REMARK  108  A    between atoms: _270  and  _271
REMARK                            x       y       z     vdW  Elec       q    Type
REMARK                         _______ _______ _______ _____ _____    ______ ____
ROOT
ATOM      1  O   HOH     1      -1.524  16.299 -14.909  0.00  0.00    +0.000 OA
ENDROOT
TORSDOF 0
REMARK  Name = ../refined-set-2016/2qw1/2qw1_pocket.pdb
REMARK  108 active torsions:
REMARK  status: ('A' for Active; 'I' for Inactive)
REMARK    1  A    between atoms: _1  and  _3
REMARK    2  A    between atoms: _3  and  _4
REMARK    3  A    between atoms: _3  and  _6
REMARK    4  A    between atoms: _6  and  _7
REMARK    5  A    between atoms: _12  and  _13
REMARK    6  A    between atoms: _15  and  _17
REMARK    7  A    between atoms: _17  and  _18
REMARK    8  A    between atoms: _17  and  _20
REMARK    9  A    between atoms: _20  and  _21
REMARK   10  A    between atoms: _21  and  _22
REMARK   11  A    between atoms: _22  and  _23
REMARK   12  A    between atoms: _23  and  _24
REMARK   13  A    between atoms: _28  and  _30
REMARK   14  A    between atoms: _30  and  _31
REMARK   15  A    between atoms: _30  and  _33
REMARK   16  A    between atoms: _33  and  _34
REMARK   17  A    between atoms: _37  and  _39
REMARK   18  A    between atoms: _39  and  _40
REMARK   19  A    between atoms: _39  and  _42
REMARK   20  A    between atoms: _42  and  _43
REMARK   21  A    between atoms: _46  and  _48
REMARK   22  A    between atoms: _48  and  _49
REMARK   23  A    between atoms: _48  and  _51
REMARK   24  A    between atoms: _51  and  _52
REMARK   25  A    between atoms: _57  and  _59
REMARK   26  A    between atoms: _59  and  _60
REMARK   27  A    between atoms: _59  and  _62
REMARK   28  A    between atoms: _62  and  _63
REMARK   29  A    between atoms: _69  and  _71
REMARK   30  A    between atoms: _71  and  _72
REMARK   31  A    between atoms: _71  and  _74
REMARK   32  A    between atoms: _74  and  _75
REMARK   33  A    between atoms: _77  and  _79
REMARK   34  A    between atoms: _79  and  _80
REMARK   35  A    between atoms: _82  and  _84
REMARK   36  A    between atoms: _84  and  _85
REMARK   37  A    between atoms: _84  and  _87
REMARK   38  A    between atoms: _87  and  _88
REMARK   39  A    between atoms: _88  and  _89
REMARK   40  A    between atoms: _92  and  _94
REMARK   41  A    between atoms: _94  and  _95
REMARK   42  A    between atoms: _94  and  _97
REMARK   43  A    between atoms: _97  and  _98
REMARK   44  A    between atoms: _104  and  _105
REMARK   45  A    between atoms: _110  and  _112
REMARK   46  A    between atoms: _112  and  _113
REMARK   47  A    between atoms: _112  and  _115
REMARK   48  A    between atoms: _115  and  _116
REMARK   49  A    between atoms: _119  and  _121
REMARK   50  A    between atoms: _121  and  _122
REMARK   51  A    between atoms: _125  and  _127
REMARK   52  A    between atoms: _127  and  _128
REMARK   53  A    between atoms: _127  and  _130
REMARK   54  A    between atoms: _130  and  _131
REMARK   55  A    between atoms: _131  and  _132
REMARK   56  A    between atoms: _132  and  _133
REMARK   57  A    between atoms: _142  and  _144
REMARK   58  A    between atoms: _144  and  _145
REMARK   59  A    between atoms: _144  and  _147
REMARK   60  A    between atoms: _147  and  _148
REMARK   61  A    between atoms: _148  and  _149
REMARK   62  A    between atoms: _151  and  _153
REMARK   63  A    between atoms: _153  and  _154
REMARK   64  A    between atoms: _153  and  _156
REMARK   65  A    between atoms: _156  and  _157
REMARK   66  A    between atoms: _167  and  _169
REMARK   67  A    between atoms: _169  and  _170
REMARK   68  A    between atoms: _169  and  _172
REMARK   69  A    between atoms: _172  and  _173
REMARK   70  A    between atoms: _176  and  _178
REMARK   71  A    between atoms: _178  and  _179
REMARK   72  A    between atoms: _178  and  _181
REMARK   73  A    between atoms: _181  and  _182
REMARK   74  A    between atoms: _187  and  _189
REMARK   75  A    between atoms: _189  and  _190
REMARK   76  A    between atoms: _189  and  _192
REMARK   77  A    between atoms: _192  and  _193
REMARK   78  A    between atoms: _198  and  _200
REMARK   79  A    between atoms: _200  and  _201
REMARK   80  A    between atoms: _200  and  _203
REMARK   81  A    between atoms: _203  and  _204
REMARK   82  A    between atoms: _207  and  _209
REMARK   83  A    between atoms: _209  and  _210
REMARK   84  A    between atoms: _213  and  _215
REMARK   85  A    between atoms: _215  and  _216
REMARK   86  A    between atoms: _215  and  _218
REMARK   87  A    between atoms: _218  and  _219
REMARK   88  A    between atoms: _219  and  _220
REMARK   89  A    between atoms: _222  and  _224
REMARK   90  A    between atoms: _224  and  _225
REMARK   91  A    between atoms: _224  and  _227
REMARK   92  A    between atoms: _230  and  _232
REMARK   93  A    between atoms: _232  and  _233
REMARK   94  A    between atoms: _232  and  _235
REMARK   95  A    between atoms: _235  and  _236
REMARK   96  A    between atoms: _239  and  _241
REMARK   97  A    between atoms: _241  and  _242
REMARK   98  A    between atoms: _241  and  _244
REMARK   99  A    between atoms: _244  and  _245
REMARK  100  A    between atoms: _248  and  _250
REMARK  101  A    between atoms: _250  and  _251
REMARK  102  A    between atoms: _250  and  _253
REMARK  103  A    between atoms: _253  and  _254
REMARK  104  A    between atoms: _259  and  _261
REMARK  105  A    between atoms: _261  and  _262
REMARK  106  A    between atoms: _261  and  _264
REMARK  107  A    between atoms: _264  and  _265
REMARK  108  A    between atoms: _270  and  _271
REMARK                            x       y       z     vdW  Elec       q    Type
REMARK                         _______ _______ _______ _____ _____    ______ ____
ROOT
ATOM      1  O   HOH     1      -3.393  16.348 -17.095  0.00  0.00    +0.000 OA
ENDROOT
TORSDOF 0
REMARK  Name = ../refined-set-2016/2qw1/2qw1_pocket.pdb
REMARK  108 active torsions:
REMARK  status: ('A' for Active; 'I' for Inactive)
REMARK    1  A    between atoms: _1  and  _3
REMARK    2  A    between atoms: _3  and  _4
REMARK    3  A    between atoms: _3  and  _6
REMARK    4  A    between atoms: _6  and  _7
REMARK    5  A    between atoms: _12  and  _13
REMARK    6  A    between atoms: _15  and  _17
REMARK    7  A    between atoms: _17  and  _18
REMARK    8  A    between atoms: _17  and  _20
REMARK    9  A    between atoms: _20  and  _21
REMARK   10  A    between atoms: _21  and  _22
REMARK   11  A    between atoms: _22  and  _23
REMARK   12  A    between atoms: _23  and  _24
REMARK   13  A    between atoms: _28  and  _30
REMARK   14  A    between atoms: _30  and  _31
REMARK   15  A    between atoms: _30  and  _33
REMARK   16  A    between atoms: _33  and  _34
REMARK   17  A    between atoms: _37  and  _39
REMARK   18  A    between atoms: _39  and  _40
REMARK   19  A    between atoms: _39  and  _42
REMARK   20  A    between atoms: _42  and  _43
REMARK   21  A    between atoms: _46  and  _48
REMARK   22  A    between atoms: _48  and  _49
REMARK   23  A    between atoms: _48  and  _51
REMARK   24  A    between atoms: _51  and  _52
REMARK   25  A    between atoms: _57  and  _59
REMARK   26  A    between atoms: _59  and  _60
REMARK   27  A    between atoms: _59  and  _62
REMARK   28  A    between atoms: _62  and  _63
REMARK   29  A    between atoms: _69  and  _71
REMARK   30  A    between atoms: _71  and  _72
REMARK   31  A    between atoms: _71  and  _74
REMARK   32  A    between atoms: _74  and  _75
REMARK   33  A    between atoms: _77  and  _79
REMARK   34  A    between atoms: _79  and  _80
REMARK   35  A    between atoms: _82  and  _84
REMARK   36  A    between atoms: _84  and  _85
REMARK   37  A    between atoms: _84  and  _87
REMARK   38  A    between atoms: _87  and  _88
REMARK   39  A    between atoms: _88  and  _89
REMARK   40  A    between atoms: _92  and  _94
REMARK   41  A    between atoms: _94  and  _95
REMARK   42  A    between atoms: _94  and  _97
REMARK   43  A    between atoms: _97  and  _98
REMARK   44  A    between atoms: _104  and  _105
REMARK   45  A    between atoms: _110  and  _112
REMARK   46  A    between atoms: _112  and  _113
REMARK   47  A    between atoms: _112  and  _115
REMARK   48  A    between atoms: _115  and  _116
REMARK   49  A    between atoms: _119  and  _121
REMARK   50  A    between atoms: _121  and  _122
REMARK   51  A    between atoms: _125  and  _127
REMARK   52  A    between atoms: _127  and  _128
REMARK   53  A    between atoms: _127  and  _130
REMARK   54  A    between atoms: _130  and  _131
REMARK   55  A    between atoms: _131  and  _132
REMARK   56  A    between atoms: _132  and  _133
REMARK   57  A    between atoms: _142  and  _144
REMARK   58  A    between atoms: _144  and  _145
REMARK   59  A    between atoms: _144  and  _147
REMARK   60  A    between atoms: _147  and  _148
REMARK   61  A    between atoms: _148  and  _149
REMARK   62  A    between atoms: _151  and  _153
REMARK   63  A    between atoms: _153  and  _154
REMARK   64  A    between atoms: _153  and  _156
REMARK   65  A    between atoms: _156  and  _157
REMARK   66  A    between atoms: _167  and  _169
REMARK   67  A    between atoms: _169  and  _170
REMARK   68  A    between atoms: _169  and  _172
REMARK   69  A    between atoms: _172  and  _173
REMARK   70  A    between atoms: _176  and  _178
REMARK   71  A    between atoms: _178  and  _179
REMARK   72  A    between atoms: _178  and  _181
REMARK   73  A    between atoms: _181  and  _182
REMARK   74  A    between atoms: _187  and  _189
REMARK   75  A    between atoms: _189  and  _190
REMARK   76  A    between atoms: _189  and  _192
REMARK   77  A    between atoms: _192  and  _193
REMARK   78  A    between atoms: _198  and  _200
REMARK   79  A    between atoms: _200  and  _201
REMARK   80  A    between atoms: _200  and  _203
REMARK   81  A    between atoms: _203  and  _204
REMARK   82  A    between atoms: _207  and  _209
REMARK   83  A    between atoms: _209  and  _210
REMARK   84  A    between atoms: _213  and  _215
REMARK   85  A    between atoms: _215  and  _216
REMARK   86  A    between atoms: _215  and  _218
REMARK   87  A    between atoms: _218  and  _219
REMARK   88  A    between atoms: _219  and  _220
REMARK   89  A    between atoms: _222  and  _224
REMARK   90  A    between atoms: _224  and  _225
REMARK   91  A    between atoms: _224  and  _227
REMARK   92  A    between atoms: _230  and  _232
REMARK   93  A    between atoms: _232  and  _233
REMARK   94  A    between atoms: _232  and  _235
REMARK   95  A    between atoms: _235  and  _236
REMARK   96  A    between atoms: _239  and  _241
REMARK   97  A    between atoms: _241  and  _242
REMARK   98  A    between atoms: _241  and  _244
REMARK   99  A    between atoms: _244  and  _245
REMARK  100  A    between atoms: _248  and  _250
REMARK  101  A    between atoms: _250  and  _251
REMARK  102  A    between atoms: _250  and  _253
REMARK  103  A    between atoms: _253  and  _254
REMARK  104  A    between atoms: _259  and  _261
REMARK  105  A    between atoms: _261  and  _262
REMARK  106  A    between atoms: _261  and  _264
REMARK  107  A    between atoms: _264  and  _265
REMARK  108  A    between atoms: _270  and  _271
REMARK                            x       y       z     vdW  Elec       q    Type
REMARK                         _______ _______ _______ _____ _____    ______ ____
ROOT
ATOM      1  O   HOH     1      -4.097  17.669 -19.962  0.00  0.00    +0.000 OA
ENDROOT
TORSDOF 0
REMARK  Name = ../refined-set-2016/2qw1/2qw1_pocket.pdb
REMARK  108 active torsions:
REMARK  status: ('A' for Active; 'I' for Inactive)
REMARK    1  A    between atoms: _1  and  _3
REMARK    2  A    between atoms: _3  and  _4
REMARK    3  A    between atoms: _3  and  _6
REMARK    4  A    between atoms: _6  and  _7
REMARK    5  A    between atoms: _12  and  _13
REMARK    6  A    between atoms: _15  and  _17
REMARK    7  A    between atoms: _17  and  _18
REMARK    8  A    between atoms: _17  and  _20
REMARK    9  A    between atoms: _20  and  _21
REMARK   10  A    between atoms: _21  and  _22
REMARK   11  A    between atoms: _22  and  _23
REMARK   12  A    between atoms: _23  and  _24
REMARK   13  A    between atoms: _28  and  _30
REMARK   14  A    between atoms: _30  and  _31
REMARK   15  A    between atoms: _30  and  _33
REMARK   16  A    between atoms: _33  and  _34
REMARK   17  A    between atoms: _37  and  _39
REMARK   18  A    between atoms: _39  and  _40
REMARK   19  A    between atoms: _39  and  _42
REMARK   20  A    between atoms: _42  and  _43
REMARK   21  A    between atoms: _46  and  _48
REMARK   22  A    between atoms: _48  and  _49
REMARK   23  A    between atoms: _48  and  _51
REMARK   24  A    between atoms: _51  and  _52
REMARK   25  A    between atoms: _57  and  _59
REMARK   26  A    between atoms: _59  and  _60
REMARK   27  A    between atoms: _59  and  _62
REMARK   28  A    between atoms: _62  and  _63
REMARK   29  A    between atoms: _69  and  _71
REMARK   30  A    between atoms: _71  and  _72
REMARK   31  A    between atoms: _71  and  _74
REMARK   32  A    between atoms: _74  and  _75
REMARK   33  A    between atoms: _77  and  _79
REMARK   34  A    between atoms: _79  and  _80
REMARK   35  A    between atoms: _82  and  _84
REMARK   36  A    between atoms: _84  and  _85
REMARK   37  A    between atoms: _84  and  _87
REMARK   38  A    between atoms: _87  and  _88
REMARK   39  A    between atoms: _88  and  _89
REMARK   40  A    between atoms: _92  and  _94
REMARK   41  A    between atoms: _94  and  _95
REMARK   42  A    between atoms: _94  and  _97
REMARK   43  A    between atoms: _97  and  _98
REMARK   44  A    between atoms: _104  and  _105
REMARK   45  A    between atoms: _110  and  _112
REMARK   46  A    between atoms: _112  and  _113
REMARK   47  A    between atoms: _112  and  _115
REMARK   48  A    between atoms: _115  and  _116
REMARK   49  A    between atoms: _119  and  _121
REMARK   50  A    between atoms: _121  and  _122
REMARK   51  A    between atoms: _125  and  _127
REMARK   52  A    between atoms: _127  and  _128
REMARK   53  A    between atoms: _127  and  _130
REMARK   54  A    between atoms: _130  and  _131
REMARK   55  A    between atoms: _131  and  _132
REMARK   56  A    between atoms: _132  and  _133
REMARK   57  A    between atoms: _142  and  _144
REMARK   58  A    between atoms: _144  and  _145
REMARK   59  A    between atoms: _144  and  _147
REMARK   60  A    between atoms: _147  and  _148
REMARK   61  A    between atoms: _148  and  _149
REMARK   62  A    between atoms: _151  and  _153
REMARK   63  A    between atoms: _153  and  _154
REMARK   64  A    between atoms: _153  and  _156
REMARK   65  A    between atoms: _156  and  _157
REMARK   66  A    between atoms: _167  and  _169
REMARK   67  A    between atoms: _169  and  _170
REMARK   68  A    between atoms: _169  and  _172
REMARK   69  A    between atoms: _172  and  _173
REMARK   70  A    between atoms: _176  and  _178
REMARK   71  A    between atoms: _178  and  _179
REMARK   72  A    between atoms: _178  and  _181
REMARK   73  A    between atoms: _181  and  _182
REMARK   74  A    between atoms: _187  and  _189
REMARK   75  A    between atoms: _189  and  _190
REMARK   76  A    between atoms: _189  and  _192
REMARK   77  A    between atoms: _192  and  _193
REMARK   78  A    between atoms: _198  and  _200
REMARK   79  A    between atoms: _200  and  _201
REMARK   80  A    between atoms: _200  and  _203
REMARK   81  A    between atoms: _203  and  _204
REMARK   82  A    between atoms: _207  and  _209
REMARK   83  A    between atoms: _209  and  _210
REMARK   84  A    between atoms: _213  and  _215
REMARK   85  A    between atoms: _215  and  _216
REMARK   86  A    between atoms: _215  and  _218
REMARK   87  A    between atoms: _218  and  _219
REMARK   88  A    between atoms: _219  and  _220
REMARK   89  A    between atoms: _222  and  _224
REMARK   90  A    between atoms: _224  and  _225
REMARK   91  A    between atoms: _224  and  _227
REMARK   92  A    between atoms: _230  and  _232
REMARK   93  A    between atoms: _232  and  _233
REMARK   94  A    between atoms: _232  and  _235
REMARK   95  A    between atoms: _235  and  _236
REMARK   96  A    between atoms: _239  and  _241
REMARK   97  A    between atoms: _241  and  _242
REMARK   98  A    between atoms: _241  and  _244
REMARK   99  A    between atoms: _244  and  _245
REMARK  100  A    between atoms: _248  and  _250
REMARK  101  A    between atoms: _250  and  _251
REMARK  102  A    between atoms: _250  and  _253
REMARK  103  A    between atoms: _253  and  _254
REMARK  104  A    between atoms: _259  and  _261
REMARK  105  A    between atoms: _261  and  _262
REMARK  106  A    between atoms: _261  and  _264
REMARK  107  A    between atoms: _264  and  _265
REMARK  108  A    between atoms: _270  and  _271
REMARK                            x       y       z     vdW  Elec       q    Type
REMARK                         _______ _______ _______ _____ _____    ______ ____
ROOT
ATOM      1  O   HOH     1     -13.512  13.292 -16.852  0.00  0.00    +0.000 OA
ENDROOT
TORSDOF 0
