REMARK  Name = ../refined-set-2016/4ca8/4ca8_pocket.pdb
REMARK  304 active torsions:
REMARK  status: ('A' for Active; 'I' for Inactive)
REMARK    1  A    between atoms: _1  and  _3
REMARK    2  A    between atoms: _3  and  _4
REMARK    3  A    between atoms: _3  and  _6
REMARK    4  A    between atoms: _6  and  _7
REMARK    5  A    between atoms: _7  and  _8
REMARK    6  A    between atoms: _11  and  _13
REMARK    7  A    between atoms: _13  and  _14
REMARK    8  A    between atoms: _13  and  _16
REMARK    9  A    between atoms: _16  and  _17
REMARK   10  A    between atoms: _17  and  _18
REMARK   11  A    between atoms: _21  and  _23
REMARK   12  A    between atoms: _23  and  _24
REMARK   13  A    between atoms: _23  and  _26
REMARK   14  A    between atoms: _26  and  _27
REMARK   15  A    between atoms: _32  and  _34
REMARK   16  A    between atoms: _34  and  _35
REMARK   17  A    between atoms: _34  and  _37
REMARK   18  A    between atoms: _37  and  _38
REMARK   19  A    between atoms: _48  and  _50
REMARK   20  A    between atoms: _50  and  _51
REMARK   21  A    between atoms: _50  and  _53
REMARK   22  A    between atoms: _53  and  _54
REMARK   23  A    between atoms: _54  and  _55
REMARK   24  A    between atoms: _60  and  _62
REMARK   25  A    between atoms: _62  and  _63
REMARK   26  A    between atoms: _62  and  _65
REMARK   27  A    between atoms: _65  and  _66
REMARK   28  A    between atoms: _66  and  _67
REMARK   29  A    between atoms: _72  and  _74
REMARK   30  A    between atoms: _74  and  _75
REMARK   31  A    between atoms: _74  and  _77
REMARK   32  A    between atoms: _77  and  _78
REMARK   33  A    between atoms: _80  and  _82
REMARK   34  A    between atoms: _82  and  _83
REMARK   35  A    between atoms: _82  and  _85
REMARK   36  A    between atoms: _85  and  _86
REMARK   37  A    between atoms: _86  and  _87
REMARK   38  A    between atoms: _90  and  _92
REMARK   39  A    between atoms: _92  and  _93
REMARK   40  A    between atoms: _92  and  _95
REMARK   41  A    between atoms: _98  and  _100
REMARK   42  A    between atoms: _100  and  _101
REMARK   43  A    between atoms: _100  and  _103
REMARK   44  A    between atoms: _105  and  _107
REMARK   45  A    between atoms: _107  and  _108
REMARK   46  A    between atoms: _107  and  _110
REMARK   47  A    between atoms: _110  and  _111
REMARK   48  A    between atoms: _116  and  _118
REMARK   49  A    between atoms: _118  and  _119
REMARK   50  A    between atoms: _122  and  _124
REMARK   51  A    between atoms: _124  and  _125
REMARK   52  A    between atoms: _124  and  _127
REMARK   53  A    between atoms: _127  and  _128
REMARK   54  A    between atoms: _130  and  _132
REMARK   55  A    between atoms: _132  and  _133
REMARK   56  A    between atoms: _136  and  _138
REMARK   57  A    between atoms: _138  and  _139
REMARK   58  A    between atoms: _138  and  _141
REMARK   59  A    between atoms: _141  and  _142
REMARK   60  A    between atoms: _152  and  _154
REMARK   61  A    between atoms: _154  and  _155
REMARK   62  A    between atoms: _154  and  _157
REMARK   63  A    between atoms: _157  and  _158
REMARK   64  A    between atoms: _161  and  _163
REMARK   65  A    between atoms: _163  and  _164
REMARK   66  A    between atoms: _163  and  _166
REMARK   67  A    between atoms: _166  and  _167
REMARK   68  A    between atoms: _172  and  _173
REMARK   69  A    between atoms: _175  and  _177
REMARK   70  A    between atoms: _177  and  _178
REMARK   71  A    between atoms: _177  and  _180
REMARK   72  A    between atoms: _180  and  _181
REMARK   73  A    between atoms: _181  and  _182
REMARK   74  A    between atoms: _182  and  _183
REMARK   75  A    between atoms: _192  and  _194
REMARK   76  A    between atoms: _194  and  _195
REMARK   77  A    between atoms: _194  and  _197
REMARK   78  A    between atoms: _197  and  _198
REMARK   79  A    between atoms: _201  and  _203
REMARK   80  A    between atoms: _203  and  _204
REMARK   81  A    between atoms: _203  and  _206
REMARK   82  A    between atoms: _206  and  _207
REMARK   83  A    between atoms: _207  and  _208
REMARK   84  A    between atoms: _208  and  _209
REMARK   85  A    between atoms: _209  and  _210
REMARK   86  A    between atoms: _214  and  _216
REMARK   87  A    between atoms: _216  and  _217
REMARK   88  A    between atoms: _216  and  _219
REMARK   89  A    between atoms: _219  and  _220
REMARK   90  A    between atoms: _220  and  _221
REMARK   91  A    between atoms: _226  and  _228
REMARK   92  A    between atoms: _228  and  _229
REMARK   93  A    between atoms: _228  and  _231
REMARK   94  A    between atoms: _231  and  _232
REMARK   95  A    between atoms: _232  and  _233
REMARK   96  A    between atoms: _233  and  _234
REMARK   97  A    between atoms: _243  and  _245
REMARK   98  A    between atoms: _245  and  _246
REMARK   99  A    between atoms: _245  and  _248
REMARK  100  A    between atoms: _248  and  _249
REMARK  101  A    between atoms: _252  and  _254
REMARK  102  A    between atoms: _254  and  _255
REMARK  103  A    between atoms: _254  and  _257
REMARK  104  A    between atoms: _257  and  _258
REMARK  105  A    between atoms: _258  and  _259
REMARK  106  A    between atoms: _264  and  _266
REMARK  107  A    between atoms: _266  and  _267
REMARK  108  A    between atoms: _266  and  _269
REMARK  109  A    between atoms: _269  and  _270
REMARK  110  A    between atoms: _273  and  _275
REMARK  111  A    between atoms: _275  and  _276
REMARK  112  A    between atoms: _275  and  _278
REMARK  113  A    between atoms: _278  and  _279
REMARK  114  A    between atoms: _279  and  _280
REMARK  115  A    between atoms: _285  and  _287
REMARK  116  A    between atoms: _287  and  _288
REMARK  117  A    between atoms: _287  and  _290
REMARK  118  A    between atoms: _290  and  _291
REMARK  119  A    between atoms: _294  and  _296
REMARK  120  A    between atoms: _296  and  _297
REMARK  121  A    between atoms: _296  and  _299
REMARK  122  A    between atoms: _299  and  _300
REMARK  123  A    between atoms: _306  and  _308
REMARK  124  A    between atoms: _308  and  _309
REMARK  125  A    between atoms: _308  and  _311
REMARK  126  A    between atoms: _311  and  _312
REMARK  127  A    between atoms: _315  and  _317
REMARK  128  A    between atoms: _317  and  _318
REMARK  129  A    between atoms: _317  and  _320
REMARK  130  A    between atoms: _323  and  _325
REMARK  131  A    between atoms: _325  and  _326
REMARK  132  A    between atoms: _325  and  _328
REMARK  133  A    between atoms: _328  and  _329
REMARK  134  A    between atoms: _334  and  _336
REMARK  135  A    between atoms: _347  and  _350
REMARK  136  A    between atoms: _350  and  _351
REMARK  137  A    between atoms: _351  and  _352
REMARK  138  A    between atoms: _357  and  _360
REMARK  139  A    between atoms: _360  and  _361
REMARK  140  A    between atoms: _371  and  _372
REMARK  141  A    between atoms: _380  and  _382
REMARK  142  A    between atoms: _382  and  _383
REMARK  143  A    between atoms: _382  and  _385
REMARK  144  A    between atoms: _385  and  _386
REMARK  145  A    between atoms: _389  and  _391
REMARK  146  A    between atoms: _391  and  _392
REMARK  147  A    between atoms: _391  and  _394
REMARK  148  A    between atoms: _394  and  _395
REMARK  149  A    between atoms: _400  and  _401
REMARK  150  A    between atoms: _403  and  _405
REMARK  151  A    between atoms: _405  and  _406
REMARK  152  A    between atoms: _405  and  _408
REMARK  153  A    between atoms: _408  and  _409
REMARK  154  A    between atoms: _415  and  _417
REMARK  155  A    between atoms: _417  and  _418
REMARK  156  A    between atoms: _417  and  _420
REMARK  157  A    between atoms: _420  and  _421
REMARK  158  A    between atoms: _426  and  _427
REMARK  159  A    between atoms: _429  and  _431
REMARK  160  A    between atoms: _431  and  _432
REMARK  161  A    between atoms: _431  and  _434
REMARK  162  A    between atoms: _434  and  _435
REMARK  163  A    between atoms: _435  and  _436
REMARK  164  A    between atoms: _436  and  _437
REMARK  165  A    between atoms: _446  and  _448
REMARK  166  A    between atoms: _448  and  _449
REMARK  167  A    between atoms: _448  and  _451
REMARK  168  A    between atoms: _451  and  _452
REMARK  169  A    between atoms: _455  and  _457
REMARK  170  A    between atoms: _457  and  _458
REMARK  171  A    between atoms: _460  and  _462
REMARK  172  A    between atoms: _462  and  _463
REMARK  173  A    between atoms: _462  and  _465
REMARK  174  A    between atoms: _465  and  _466
REMARK  175  A    between atoms: _472  and  _473
REMARK  176  A    between atoms: _478  and  _480
REMARK  177  A    between atoms: _480  and  _481
REMARK  178  A    between atoms: _483  and  _485
REMARK  179  A    between atoms: _485  and  _486
REMARK  180  A    between atoms: _485  and  _488
REMARK  181  A    between atoms: _488  and  _489
REMARK  182  A    between atoms: _495  and  _497
REMARK  183  A    between atoms: _497  and  _498
REMARK  184  A    between atoms: _497  and  _500
REMARK  185  A    between atoms: _500  and  _501
REMARK  186  A    between atoms: _506  and  _508
REMARK  187  A    between atoms: _508  and  _509
REMARK  188  A    between atoms: _508  and  _511
REMARK  189  A    between atoms: _511  and  _512
REMARK  190  A    between atoms: _512  and  _513
REMARK  191  A    between atoms: _513  and  _514
REMARK  192  A    between atoms: _514  and  ZN_788
REMARK  193  A    between atoms: _516  and  _518
REMARK  194  A    between atoms: _518  and  _519
REMARK  195  A    between atoms: _522  and  _524
REMARK  196  A    between atoms: _524  and  _525
REMARK  197  A    between atoms: _527  and  _529
REMARK  198  A    between atoms: _529  and  _530
REMARK  199  A    between atoms: _529  and  _532
REMARK  200  A    between atoms: _532  and  _533
REMARK  201  A    between atoms: _536  and  _538
REMARK  202  A    between atoms: _538  and  _539
REMARK  203  A    between atoms: _538  and  _541
REMARK  204  A    between atoms: _544  and  _546
REMARK  205  A    between atoms: _546  and  _547
REMARK  206  A    between atoms: _546  and  _549
REMARK  207  A    between atoms: _549  and  _550
REMARK  208  A    between atoms: _552  and  _554
REMARK  209  A    between atoms: _554  and  _555
REMARK  210  A    between atoms: _554  and  _557
REMARK  211  A    between atoms: _557  and  _558
REMARK  212  A    between atoms: _561  and  _563
REMARK  213  A    between atoms: _563  and  _564
REMARK  214  A    between atoms: _563  and  _566
REMARK  215  A    between atoms: _566  and  _567
REMARK  216  A    between atoms: _570  and  _572
REMARK  217  A    between atoms: _572  and  _573
REMARK  218  A    between atoms: _572  and  _575
REMARK  219  A    between atoms: _575  and  _576
REMARK  220  A    between atoms: _576  and  _577
REMARK  221  A    between atoms: _577  and  _578
REMARK  222  A    between atoms: _578  and  _579
REMARK  223  A    between atoms: _583  and  _585
REMARK  224  A    between atoms: _585  and  _586
REMARK  225  A    between atoms: _585  and  _588
REMARK  226  A    between atoms: _588  and  _589
REMARK  227  A    between atoms: _595  and  _597
REMARK  228  A    between atoms: _597  and  _598
REMARK  229  A    between atoms: _597  and  _600
REMARK  230  A    between atoms: _600  and  _601
REMARK  231  A    between atoms: _607  and  _609
REMARK  232  A    between atoms: _609  and  _610
REMARK  233  A    between atoms: _613  and  _615
REMARK  234  A    between atoms: _615  and  _616
REMARK  235  A    between atoms: _615  and  _618
REMARK  236  A    between atoms: _618  and  _619
REMARK  237  A    between atoms: _619  and  _620
REMARK  238  A    between atoms: _622  and  _624
REMARK  239  A    between atoms: _624  and  _625
REMARK  240  A    between atoms: _624  and  _627
REMARK  241  A    between atoms: _627  and  _628
REMARK  242  A    between atoms: _628  and  _629
REMARK  243  A    between atoms: _629  and  _630
REMARK  244  A    between atoms: _630  and  _631
REMARK  245  A    between atoms: _635  and  _637
REMARK  246  A    between atoms: _637  and  _638
REMARK  247  A    between atoms: _637  and  _640
REMARK  248  A    between atoms: _640  and  _641
REMARK  249  A    between atoms: _646  and  _647
REMARK  250  A    between atoms: _649  and  _651
REMARK  251  A    between atoms: _651  and  _652
REMARK  252  A    between atoms: _651  and  _654
REMARK  253  A    between atoms: _654  and  _655
REMARK  254  A    between atoms: _660  and  _662
REMARK  255  A    between atoms: _662  and  _663
REMARK  256  A    between atoms: _662  and  _665
REMARK  257  A    between atoms: _665  and  _666
REMARK  258  A    between atoms: _669  and  _671
REMARK  259  A    between atoms: _671  and  _672
REMARK  260  A    between atoms: _675  and  _677
REMARK  261  A    between atoms: _677  and  _678
REMARK  262  A    between atoms: _677  and  _680
REMARK  263  A    between atoms: _680  and  _681
REMARK  264  A    between atoms: _684  and  _686
REMARK  265  A    between atoms: _686  and  _687
REMARK  266  A    between atoms: _686  and  _689
REMARK  267  A    between atoms: _692  and  _694
REMARK  268  A    between atoms: _694  and  _695
REMARK  269  A    between atoms: _694  and  _697
REMARK  270  A    between atoms: _697  and  _698
REMARK  271  A    between atoms: _698  and  _699
REMARK  272  A    between atoms: _702  and  _704
REMARK  273  A    between atoms: _704  and  _705
REMARK  274  A    between atoms: _704  and  _707
REMARK  275  A    between atoms: _707  and  _708
REMARK  276  A    between atoms: _713  and  _714
REMARK  277  A    between atoms: _716  and  _718
REMARK  278  A    between atoms: _718  and  _719
REMARK  279  A    between atoms: _718  and  _721
REMARK  280  A    between atoms: _721  and  _722
REMARK  281  A    between atoms: _722  and  _723
REMARK  282  A    between atoms: _723  and  _724
REMARK  283  A    between atoms: _733  and  _735
REMARK  284  A    between atoms: _735  and  _736
REMARK  285  A    between atoms: _735  and  _738
REMARK  286  A    between atoms: _738  and  _739
REMARK  287  A    between atoms: _744  and  _745
REMARK  288  A    between atoms: _747  and  _749
REMARK  289  A    between atoms: _749  and  _750
REMARK  290  A    between atoms: _749  and  _752
REMARK  291  A    between atoms: _752  and  _753
REMARK  292  A    between atoms: _756  and  _758
REMARK  293  A    between atoms: _758  and  _759
REMARK  294  A    between atoms: _758  and  _761
REMARK  295  A    between atoms: _761  and  _762
REMARK  296  A    between atoms: _764  and  _766
REMARK  297  A    between atoms: _766  and  _767
REMARK  298  A    between atoms: _766  and  _769
REMARK  299  A    between atoms: _769  and  _770
REMARK  300  A    between atoms: _776  and  _778
REMARK  301  A    between atoms: _778  and  _779
REMARK  302  A    between atoms: _778  and  _781
REMARK  303  A    between atoms: _781  and  _782
REMARK  304  A    between atoms: _782  and  _783
REMARK                            x       y       z     vdW  Elec       q    Type
REMARK                         _______ _______ _______ _____ _____    ______ ____
ROOT
ATOM      1  CA  GLU A   1      31.370  -7.553 -33.117  0.00  0.00    +0.134 C 
ENDROOT
BRANCH   1   2
ATOM      2  N   GLU A   1      32.463  -8.510 -32.955  0.00  0.00    -0.239 NA
ATOM      3  H   GLU A   1      32.401  -9.446 -33.404  0.00  0.00    +0.142 HD
ENDBRANCH   1   2
BRANCH   1   4
ATOM      4  C   GLU A   1      30.630  -7.314 -31.809  0.00  0.00    +0.224 C 
ATOM      5  O   GLU A   1      30.220  -6.193 -31.545  0.00  0.00    -0.287 OA
ENDBRANCH   1   4
BRANCH   1   6
ATOM      6  CB  GLU A   1      30.381  -7.965 -34.218  0.00  0.00    +0.037 C 
BRANCH   6   7
ATOM      7  CG  GLU A   1      29.251  -6.945 -34.403  0.00  0.00    +0.116 C 
BRANCH   7   8
ATOM      8  CD  GLU A   1      28.724  -6.823 -35.827  0.00  0.00    +0.365 C 
ATOM      9  OE2 GLU A   1      27.929  -5.881 -36.086  0.00  0.00    -0.246 OA
ATOM     10  OE1 GLU A   1      29.111  -7.648 -36.690  0.00  0.00    -0.246 OA
ENDBRANCH   7   8
ENDBRANCH   6   7
ENDBRANCH   1   6
TORSDOF 5
REMARK  Name = ../refined-set-2016/4ca8/4ca8_pocket.pdb
REMARK  304 active torsions:
REMARK  status: ('A' for Active; 'I' for Inactive)
REMARK    1  A    between atoms: _1  and  _3
REMARK    2  A    between atoms: _3  and  _4
REMARK    3  A    between atoms: _3  and  _6
REMARK    4  A    between atoms: _6  and  _7
REMARK    5  A    between atoms: _7  and  _8
REMARK    6  A    between atoms: _11  and  _13
REMARK    7  A    between atoms: _13  and  _14
REMARK    8  A    between atoms: _13  and  _16
REMARK    9  A    between atoms: _16  and  _17
REMARK   10  A    between atoms: _17  and  _18
REMARK   11  A    between atoms: _21  and  _23
REMARK   12  A    between atoms: _23  and  _24
REMARK   13  A    between atoms: _23  and  _26
REMARK   14  A    between atoms: _26  and  _27
REMARK   15  A    between atoms: _32  and  _34
REMARK   16  A    between atoms: _34  and  _35
REMARK   17  A    between atoms: _34  and  _37
REMARK   18  A    between atoms: _37  and  _38
REMARK   19  A    between atoms: _48  and  _50
REMARK   20  A    between atoms: _50  and  _51
REMARK   21  A    between atoms: _50  and  _53
REMARK   22  A    between atoms: _53  and  _54
REMARK   23  A    between atoms: _54  and  _55
REMARK   24  A    between atoms: _60  and  _62
REMARK   25  A    between atoms: _62  and  _63
REMARK   26  A    between atoms: _62  and  _65
REMARK   27  A    between atoms: _65  and  _66
REMARK   28  A    between atoms: _66  and  _67
REMARK   29  A    between atoms: _72  and  _74
REMARK   30  A    between atoms: _74  and  _75
REMARK   31  A    between atoms: _74  and  _77
REMARK   32  A    between atoms: _77  and  _78
REMARK   33  A    between atoms: _80  and  _82
REMARK   34  A    between atoms: _82  and  _83
REMARK   35  A    between atoms: _82  and  _85
REMARK   36  A    between atoms: _85  and  _86
REMARK   37  A    between atoms: _86  and  _87
REMARK   38  A    between atoms: _90  and  _92
REMARK   39  A    between atoms: _92  and  _93
REMARK   40  A    between atoms: _92  and  _95
REMARK   41  A    between atoms: _98  and  _100
REMARK   42  A    between atoms: _100  and  _101
REMARK   43  A    between atoms: _100  and  _103
REMARK   44  A    between atoms: _105  and  _107
REMARK   45  A    between atoms: _107  and  _108
REMARK   46  A    between atoms: _107  and  _110
REMARK   47  A    between atoms: _110  and  _111
REMARK   48  A    between atoms: _116  and  _118
REMARK   49  A    between atoms: _118  and  _119
REMARK   50  A    between atoms: _122  and  _124
REMARK   51  A    between atoms: _124  and  _125
REMARK   52  A    between atoms: _124  and  _127
REMARK   53  A    between atoms: _127  and  _128
REMARK   54  A    between atoms: _130  and  _132
REMARK   55  A    between atoms: _132  and  _133
REMARK   56  A    between atoms: _136  and  _138
REMARK   57  A    between atoms: _138  and  _139
REMARK   58  A    between atoms: _138  and  _141
REMARK   59  A    between atoms: _141  and  _142
REMARK   60  A    between atoms: _152  and  _154
REMARK   61  A    between atoms: _154  and  _155
REMARK   62  A    between atoms: _154  and  _157
REMARK   63  A    between atoms: _157  and  _158
REMARK   64  A    between atoms: _161  and  _163
REMARK   65  A    between atoms: _163  and  _164
REMARK   66  A    between atoms: _163  and  _166
REMARK   67  A    between atoms: _166  and  _167
REMARK   68  A    between atoms: _172  and  _173
REMARK   69  A    between atoms: _175  and  _177
REMARK   70  A    between atoms: _177  and  _178
REMARK   71  A    between atoms: _177  and  _180
REMARK   72  A    between atoms: _180  and  _181
REMARK   73  A    between atoms: _181  and  _182
REMARK   74  A    between atoms: _182  and  _183
REMARK   75  A    between atoms: _192  and  _194
REMARK   76  A    between atoms: _194  and  _195
REMARK   77  A    between atoms: _194  and  _197
REMARK   78  A    between atoms: _197  and  _198
REMARK   79  A    between atoms: _201  and  _203
REMARK   80  A    between atoms: _203  and  _204
REMARK   81  A    between atoms: _203  and  _206
REMARK   82  A    between atoms: _206  and  _207
REMARK   83  A    between atoms: _207  and  _208
REMARK   84  A    between atoms: _208  and  _209
REMARK   85  A    between atoms: _209  and  _210
REMARK   86  A    between atoms: _214  and  _216
REMARK   87  A    between atoms: _216  and  _217
REMARK   88  A    between atoms: _216  and  _219
REMARK   89  A    between atoms: _219  and  _220
REMARK   90  A    between atoms: _220  and  _221
REMARK   91  A    between atoms: _226  and  _228
REMARK   92  A    between atoms: _228  and  _229
REMARK   93  A    between atoms: _228  and  _231
REMARK   94  A    between atoms: _231  and  _232
REMARK   95  A    between atoms: _232  and  _233
REMARK   96  A    between atoms: _233  and  _234
REMARK   97  A    between atoms: _243  and  _245
REMARK   98  A    between atoms: _245  and  _246
REMARK   99  A    between atoms: _245  and  _248
REMARK  100  A    between atoms: _248  and  _249
REMARK  101  A    between atoms: _252  and  _254
REMARK  102  A    between atoms: _254  and  _255
REMARK  103  A    between atoms: _254  and  _257
REMARK  104  A    between atoms: _257  and  _258
REMARK  105  A    between atoms: _258  and  _259
REMARK  106  A    between atoms: _264  and  _266
REMARK  107  A    between atoms: _266  and  _267
REMARK  108  A    between atoms: _266  and  _269
REMARK  109  A    between atoms: _269  and  _270
REMARK  110  A    between atoms: _273  and  _275
REMARK  111  A    between atoms: _275  and  _276
REMARK  112  A    between atoms: _275  and  _278
REMARK  113  A    between atoms: _278  and  _279
REMARK  114  A    between atoms: _279  and  _280
REMARK  115  A    between atoms: _285  and  _287
REMARK  116  A    between atoms: _287  and  _288
REMARK  117  A    between atoms: _287  and  _290
REMARK  118  A    between atoms: _290  and  _291
REMARK  119  A    between atoms: _294  and  _296
REMARK  120  A    between atoms: _296  and  _297
REMARK  121  A    between atoms: _296  and  _299
REMARK  122  A    between atoms: _299  and  _300
REMARK  123  A    between atoms: _306  and  _308
REMARK  124  A    between atoms: _308  and  _309
REMARK  125  A    between atoms: _308  and  _311
REMARK  126  A    between atoms: _311  and  _312
REMARK  127  A    between atoms: _315  and  _317
REMARK  128  A    between atoms: _317  and  _318
REMARK  129  A    between atoms: _317  and  _320
REMARK  130  A    between atoms: _323  and  _325
REMARK  131  A    between atoms: _325  and  _326
REMARK  132  A    between atoms: _325  and  _328
REMARK  133  A    between atoms: _328  and  _329
REMARK  134  A    between atoms: _334  and  _336
REMARK  135  A    between atoms: _347  and  _350
REMARK  136  A    between atoms: _350  and  _351
REMARK  137  A    between atoms: _351  and  _352
REMARK  138  A    between atoms: _357  and  _360
REMARK  139  A    between atoms: _360  and  _361
REMARK  140  A    between atoms: _371  and  _372
REMARK  141  A    between atoms: _380  and  _382
REMARK  142  A    between atoms: _382  and  _383
REMARK  143  A    between atoms: _382  and  _385
REMARK  144  A    between atoms: _385  and  _386
REMARK  145  A    between atoms: _389  and  _391
REMARK  146  A    between atoms: _391  and  _392
REMARK  147  A    between atoms: _391  and  _394
REMARK  148  A    between atoms: _394  and  _395
REMARK  149  A    between atoms: _400  and  _401
REMARK  150  A    between atoms: _403  and  _405
REMARK  151  A    between atoms: _405  and  _406
REMARK  152  A    between atoms: _405  and  _408
REMARK  153  A    between atoms: _408  and  _409
REMARK  154  A    between atoms: _415  and  _417
REMARK  155  A    between atoms: _417  and  _418
REMARK  156  A    between atoms: _417  and  _420
REMARK  157  A    between atoms: _420  and  _421
REMARK  158  A    between atoms: _426  and  _427
REMARK  159  A    between atoms: _429  and  _431
REMARK  160  A    between atoms: _431  and  _432
REMARK  161  A    between atoms: _431  and  _434
REMARK  162  A    between atoms: _434  and  _435
REMARK  163  A    between atoms: _435  and  _436
REMARK  164  A    between atoms: _436  and  _437
REMARK  165  A    between atoms: _446  and  _448
REMARK  166  A    between atoms: _448  and  _449
REMARK  167  A    between atoms: _448  and  _451
REMARK  168  A    between atoms: _451  and  _452
REMARK  169  A    between atoms: _455  and  _457
REMARK  170  A    between atoms: _457  and  _458
REMARK  171  A    between atoms: _460  and  _462
REMARK  172  A    between atoms: _462  and  _463
REMARK  173  A    between atoms: _462  and  _465
REMARK  174  A    between atoms: _465  and  _466
REMARK  175  A    between atoms: _472  and  _473
REMARK  176  A    between atoms: _478  and  _480
REMARK  177  A    between atoms: _480  and  _481
REMARK  178  A    between atoms: _483  and  _485
REMARK  179  A    between atoms: _485  and  _486
REMARK  180  A    between atoms: _485  and  _488
REMARK  181  A    between atoms: _488  and  _489
REMARK  182  A    between atoms: _495  and  _497
REMARK  183  A    between atoms: _497  and  _498
REMARK  184  A    between atoms: _497  and  _500
REMARK  185  A    between atoms: _500  and  _501
REMARK  186  A    between atoms: _506  and  _508
REMARK  187  A    between atoms: _508  and  _509
REMARK  188  A    between atoms: _508  and  _511
REMARK  189  A    between atoms: _511  and  _512
REMARK  190  A    between atoms: _512  and  _513
REMARK  191  A    between atoms: _513  and  _514
REMARK  192  A    between atoms: _514  and  ZN_788
REMARK  193  A    between atoms: _516  and  _518
REMARK  194  A    between atoms: _518  and  _519
REMARK  195  A    between atoms: _522  and  _524
REMARK  196  A    between atoms: _524  and  _525
REMARK  197  A    between atoms: _527  and  _529
REMARK  198  A    between atoms: _529  and  _530
REMARK  199  A    between atoms: _529  and  _532
REMARK  200  A    between atoms: _532  and  _533
REMARK  201  A    between atoms: _536  and  _538
REMARK  202  A    between atoms: _538  and  _539
REMARK  203  A    between atoms: _538  and  _541
REMARK  204  A    between atoms: _544  and  _546
REMARK  205  A    between atoms: _546  and  _547
REMARK  206  A    between atoms: _546  and  _549
REMARK  207  A    between atoms: _549  and  _550
REMARK  208  A    between atoms: _552  and  _554
REMARK  209  A    between atoms: _554  and  _555
REMARK  210  A    between atoms: _554  and  _557
REMARK  211  A    between atoms: _557  and  _558
REMARK  212  A    between atoms: _561  and  _563
REMARK  213  A    between atoms: _563  and  _564
REMARK  214  A    between atoms: _563  and  _566
REMARK  215  A    between atoms: _566  and  _567
REMARK  216  A    between atoms: _570  and  _572
REMARK  217  A    between atoms: _572  and  _573
REMARK  218  A    between atoms: _572  and  _575
REMARK  219  A    between atoms: _575  and  _576
REMARK  220  A    between atoms: _576  and  _577
REMARK  221  A    between atoms: _577  and  _578
REMARK  222  A    between atoms: _578  and  _579
REMARK  223  A    between atoms: _583  and  _585
REMARK  224  A    between atoms: _585  and  _586
REMARK  225  A    between atoms: _585  and  _588
REMARK  226  A    between atoms: _588  and  _589
REMARK  227  A    between atoms: _595  and  _597
REMARK  228  A    between atoms: _597  and  _598
REMARK  229  A    between atoms: _597  and  _600
REMARK  230  A    between atoms: _600  and  _601
REMARK  231  A    between atoms: _607  and  _609
REMARK  232  A    between atoms: _609  and  _610
REMARK  233  A    between atoms: _613  and  _615
REMARK  234  A    between atoms: _615  and  _616
REMARK  235  A    between atoms: _615  and  _618
REMARK  236  A    between atoms: _618  and  _619
REMARK  237  A    between atoms: _619  and  _620
REMARK  238  A    between atoms: _622  and  _624
REMARK  239  A    between atoms: _624  and  _625
REMARK  240  A    between atoms: _624  and  _627
REMARK  241  A    between atoms: _627  and  _628
REMARK  242  A    between atoms: _628  and  _629
REMARK  243  A    between atoms: _629  and  _630
REMARK  244  A    between atoms: _630  and  _631
REMARK  245  A    between atoms: _635  and  _637
REMARK  246  A    between atoms: _637  and  _638
REMARK  247  A    between atoms: _637  and  _640
REMARK  248  A    between atoms: _640  and  _641
REMARK  249  A    between atoms: _646  and  _647
REMARK  250  A    between atoms: _649  and  _651
REMARK  251  A    between atoms: _651  and  _652
REMARK  252  A    between atoms: _651  and  _654
REMARK  253  A    between atoms: _654  and  _655
REMARK  254  A    between atoms: _660  and  _662
REMARK  255  A    between atoms: _662  and  _663
REMARK  256  A    between atoms: _662  and  _665
REMARK  257  A    between atoms: _665  and  _666
REMARK  258  A    between atoms: _669  and  _671
REMARK  259  A    between atoms: _671  and  _672
REMARK  260  A    between atoms: _675  and  _677
REMARK  261  A    between atoms: _677  and  _678
REMARK  262  A    between atoms: _677  and  _680
REMARK  263  A    between atoms: _680  and  _681
REMARK  264  A    between atoms: _684  and  _686
REMARK  265  A    between atoms: _686  and  _687
REMARK  266  A    between atoms: _686  and  _689
REMARK  267  A    between atoms: _692  and  _694
REMARK  268  A    between atoms: _694  and  _695
REMARK  269  A    between atoms: _694  and  _697
REMARK  270  A    between atoms: _697  and  _698
REMARK  271  A    between atoms: _698  and  _699
REMARK  272  A    between atoms: _702  and  _704
REMARK  273  A    between atoms: _704  and  _705
REMARK  274  A    between atoms: _704  and  _707
REMARK  275  A    between atoms: _707  and  _708
REMARK  276  A    between atoms: _713  and  _714
REMARK  277  A    between atoms: _716  and  _718
REMARK  278  A    between atoms: _718  and  _719
REMARK  279  A    between atoms: _718  and  _721
REMARK  280  A    between atoms: _721  and  _722
REMARK  281  A    between atoms: _722  and  _723
REMARK  282  A    between atoms: _723  and  _724
REMARK  283  A    between atoms: _733  and  _735
REMARK  284  A    between atoms: _735  and  _736
REMARK  285  A    between atoms: _735  and  _738
REMARK  286  A    between atoms: _738  and  _739
REMARK  287  A    between atoms: _744  and  _745
REMARK  288  A    between atoms: _747  and  _749
REMARK  289  A    between atoms: _749  and  _750
REMARK  290  A    between atoms: _749  and  _752
REMARK  291  A    between atoms: _752  and  _753
REMARK  292  A    between atoms: _756  and  _758
REMARK  293  A    between atoms: _758  and  _759
REMARK  294  A    between atoms: _758  and  _761
REMARK  295  A    between atoms: _761  and  _762
REMARK  296  A    between atoms: _764  and  _766
REMARK  297  A    between atoms: _766  and  _767
REMARK  298  A    between atoms: _766  and  _769
REMARK  299  A    between atoms: _769  and  _770
REMARK  300  A    between atoms: _776  and  _778
REMARK  301  A    between atoms: _778  and  _779
REMARK  302  A    between atoms: _778  and  _781
REMARK  303  A    between atoms: _781  and  _782
REMARK  304  A    between atoms: _782  and  _783
REMARK                            x       y       z     vdW  Elec       q    Type
REMARK                         _______ _______ _______ _____ _____    ______ ____
ROOT
ATOM      1  CA  GLU A   1      30.604  10.341 -29.617  0.00  0.00    +0.134 C 
ENDROOT
BRANCH   1   2
ATOM      2  N   GLU A   1      30.573   9.537 -28.384  0.00  0.00    -0.239 NA
ATOM      3  H   GLU A   1      29.952   8.705 -28.333  0.00  0.00    +0.142 HD
ENDBRANCH   1   2
BRANCH   1   4
ATOM      4  C   GLU A   1      30.104  11.774 -29.412  0.00  0.00    +0.224 C 
ATOM      5  O   GLU A   1      30.599  12.703 -30.058  0.00  0.00    -0.287 OA
ENDBRANCH   1   4
BRANCH   1   6
ATOM      6  CB  GLU A   1      29.814   9.667 -30.737  0.00  0.00    +0.037 C 
BRANCH   6   7
ATOM      7  CG  GLU A   1      30.591   8.552 -31.423  0.00  0.00    +0.116 C 
BRANCH   7   8
ATOM      8  CD  GLU A   1      30.047   8.196 -32.802  0.00  0.00    +0.365 C 
ATOM      9  OE2 GLU A   1      28.808   8.149 -32.955  0.00  0.00    -0.246 OA
ATOM     10  OE1 GLU A   1      30.864   7.959 -33.734  0.00  0.00    -0.246 OA
ENDBRANCH   7   8
ENDBRANCH   6   7
ENDBRANCH   1   6
TORSDOF 5
REMARK  Name = ../refined-set-2016/4ca8/4ca8_pocket.pdb
REMARK  304 active torsions:
REMARK  status: ('A' for Active; 'I' for Inactive)
REMARK    1  A    between atoms: _1  and  _3
REMARK    2  A    between atoms: _3  and  _4
REMARK    3  A    between atoms: _3  and  _6
REMARK    4  A    between atoms: _6  and  _7
REMARK    5  A    between atoms: _7  and  _8
REMARK    6  A    between atoms: _11  and  _13
REMARK    7  A    between atoms: _13  and  _14
REMARK    8  A    between atoms: _13  and  _16
REMARK    9  A    between atoms: _16  and  _17
REMARK   10  A    between atoms: _17  and  _18
REMARK   11  A    between atoms: _21  and  _23
REMARK   12  A    between atoms: _23  and  _24
REMARK   13  A    between atoms: _23  and  _26
REMARK   14  A    between atoms: _26  and  _27
REMARK   15  A    between atoms: _32  and  _34
REMARK   16  A    between atoms: _34  and  _35
REMARK   17  A    between atoms: _34  and  _37
REMARK   18  A    between atoms: _37  and  _38
REMARK   19  A    between atoms: _48  and  _50
REMARK   20  A    between atoms: _50  and  _51
REMARK   21  A    between atoms: _50  and  _53
REMARK   22  A    between atoms: _53  and  _54
REMARK   23  A    between atoms: _54  and  _55
REMARK   24  A    between atoms: _60  and  _62
REMARK   25  A    between atoms: _62  and  _63
REMARK   26  A    between atoms: _62  and  _65
REMARK   27  A    between atoms: _65  and  _66
REMARK   28  A    between atoms: _66  and  _67
REMARK   29  A    between atoms: _72  and  _74
REMARK   30  A    between atoms: _74  and  _75
REMARK   31  A    between atoms: _74  and  _77
REMARK   32  A    between atoms: _77  and  _78
REMARK   33  A    between atoms: _80  and  _82
REMARK   34  A    between atoms: _82  and  _83
REMARK   35  A    between atoms: _82  and  _85
REMARK   36  A    between atoms: _85  and  _86
REMARK   37  A    between atoms: _86  and  _87
REMARK   38  A    between atoms: _90  and  _92
REMARK   39  A    between atoms: _92  and  _93
REMARK   40  A    between atoms: _92  and  _95
REMARK   41  A    between atoms: _98  and  _100
REMARK   42  A    between atoms: _100  and  _101
REMARK   43  A    between atoms: _100  and  _103
REMARK   44  A    between atoms: _105  and  _107
REMARK   45  A    between atoms: _107  and  _108
REMARK   46  A    between atoms: _107  and  _110
REMARK   47  A    between atoms: _110  and  _111
REMARK   48  A    between atoms: _116  and  _118
REMARK   49  A    between atoms: _118  and  _119
REMARK   50  A    between atoms: _122  and  _124
REMARK   51  A    between atoms: _124  and  _125
REMARK   52  A    between atoms: _124  and  _127
REMARK   53  A    between atoms: _127  and  _128
REMARK   54  A    between atoms: _130  and  _132
REMARK   55  A    between atoms: _132  and  _133
REMARK   56  A    between atoms: _136  and  _138
REMARK   57  A    between atoms: _138  and  _139
REMARK   58  A    between atoms: _138  and  _141
REMARK   59  A    between atoms: _141  and  _142
REMARK   60  A    between atoms: _152  and  _154
REMARK   61  A    between atoms: _154  and  _155
REMARK   62  A    between atoms: _154  and  _157
REMARK   63  A    between atoms: _157  and  _158
REMARK   64  A    between atoms: _161  and  _163
REMARK   65  A    between atoms: _163  and  _164
REMARK   66  A    between atoms: _163  and  _166
REMARK   67  A    between atoms: _166  and  _167
REMARK   68  A    between atoms: _172  and  _173
REMARK   69  A    between atoms: _175  and  _177
REMARK   70  A    between atoms: _177  and  _178
REMARK   71  A    between atoms: _177  and  _180
REMARK   72  A    between atoms: _180  and  _181
REMARK   73  A    between atoms: _181  and  _182
REMARK   74  A    between atoms: _182  and  _183
REMARK   75  A    between atoms: _192  and  _194
REMARK   76  A    between atoms: _194  and  _195
REMARK   77  A    between atoms: _194  and  _197
REMARK   78  A    between atoms: _197  and  _198
REMARK   79  A    between atoms: _201  and  _203
REMARK   80  A    between atoms: _203  and  _204
REMARK   81  A    between atoms: _203  and  _206
REMARK   82  A    between atoms: _206  and  _207
REMARK   83  A    between atoms: _207  and  _208
REMARK   84  A    between atoms: _208  and  _209
REMARK   85  A    between atoms: _209  and  _210
REMARK   86  A    between atoms: _214  and  _216
REMARK   87  A    between atoms: _216  and  _217
REMARK   88  A    between atoms: _216  and  _219
REMARK   89  A    between atoms: _219  and  _220
REMARK   90  A    between atoms: _220  and  _221
REMARK   91  A    between atoms: _226  and  _228
REMARK   92  A    between atoms: _228  and  _229
REMARK   93  A    between atoms: _228  and  _231
REMARK   94  A    between atoms: _231  and  _232
REMARK   95  A    between atoms: _232  and  _233
REMARK   96  A    between atoms: _233  and  _234
REMARK   97  A    between atoms: _243  and  _245
REMARK   98  A    between atoms: _245  and  _246
REMARK   99  A    between atoms: _245  and  _248
REMARK  100  A    between atoms: _248  and  _249
REMARK  101  A    between atoms: _252  and  _254
REMARK  102  A    between atoms: _254  and  _255
REMARK  103  A    between atoms: _254  and  _257
REMARK  104  A    between atoms: _257  and  _258
REMARK  105  A    between atoms: _258  and  _259
REMARK  106  A    between atoms: _264  and  _266
REMARK  107  A    between atoms: _266  and  _267
REMARK  108  A    between atoms: _266  and  _269
REMARK  109  A    between atoms: _269  and  _270
REMARK  110  A    between atoms: _273  and  _275
REMARK  111  A    between atoms: _275  and  _276
REMARK  112  A    between atoms: _275  and  _278
REMARK  113  A    between atoms: _278  and  _279
REMARK  114  A    between atoms: _279  and  _280
REMARK  115  A    between atoms: _285  and  _287
REMARK  116  A    between atoms: _287  and  _288
REMARK  117  A    between atoms: _287  and  _290
REMARK  118  A    between atoms: _290  and  _291
REMARK  119  A    between atoms: _294  and  _296
REMARK  120  A    between atoms: _296  and  _297
REMARK  121  A    between atoms: _296  and  _299
REMARK  122  A    between atoms: _299  and  _300
REMARK  123  A    between atoms: _306  and  _308
REMARK  124  A    between atoms: _308  and  _309
REMARK  125  A    between atoms: _308  and  _311
REMARK  126  A    between atoms: _311  and  _312
REMARK  127  A    between atoms: _315  and  _317
REMARK  128  A    between atoms: _317  and  _318
REMARK  129  A    between atoms: _317  and  _320
REMARK  130  A    between atoms: _323  and  _325
REMARK  131  A    between atoms: _325  and  _326
REMARK  132  A    between atoms: _325  and  _328
REMARK  133  A    between atoms: _328  and  _329
REMARK  134  A    between atoms: _334  and  _336
REMARK  135  A    between atoms: _347  and  _350
REMARK  136  A    between atoms: _350  and  _351
REMARK  137  A    between atoms: _351  and  _352
REMARK  138  A    between atoms: _357  and  _360
REMARK  139  A    between atoms: _360  and  _361
REMARK  140  A    between atoms: _371  and  _372
REMARK  141  A    between atoms: _380  and  _382
REMARK  142  A    between atoms: _382  and  _383
REMARK  143  A    between atoms: _382  and  _385
REMARK  144  A    between atoms: _385  and  _386
REMARK  145  A    between atoms: _389  and  _391
REMARK  146  A    between atoms: _391  and  _392
REMARK  147  A    between atoms: _391  and  _394
REMARK  148  A    between atoms: _394  and  _395
REMARK  149  A    between atoms: _400  and  _401
REMARK  150  A    between atoms: _403  and  _405
REMARK  151  A    between atoms: _405  and  _406
REMARK  152  A    between atoms: _405  and  _408
REMARK  153  A    between atoms: _408  and  _409
REMARK  154  A    between atoms: _415  and  _417
REMARK  155  A    between atoms: _417  and  _418
REMARK  156  A    between atoms: _417  and  _420
REMARK  157  A    between atoms: _420  and  _421
REMARK  158  A    between atoms: _426  and  _427
REMARK  159  A    between atoms: _429  and  _431
REMARK  160  A    between atoms: _431  and  _432
REMARK  161  A    between atoms: _431  and  _434
REMARK  162  A    between atoms: _434  and  _435
REMARK  163  A    between atoms: _435  and  _436
REMARK  164  A    between atoms: _436  and  _437
REMARK  165  A    between atoms: _446  and  _448
REMARK  166  A    between atoms: _448  and  _449
REMARK  167  A    between atoms: _448  and  _451
REMARK  168  A    between atoms: _451  and  _452
REMARK  169  A    between atoms: _455  and  _457
REMARK  170  A    between atoms: _457  and  _458
REMARK  171  A    between atoms: _460  and  _462
REMARK  172  A    between atoms: _462  and  _463
REMARK  173  A    between atoms: _462  and  _465
REMARK  174  A    between atoms: _465  and  _466
REMARK  175  A    between atoms: _472  and  _473
REMARK  176  A    between atoms: _478  and  _480
REMARK  177  A    between atoms: _480  and  _481
REMARK  178  A    between atoms: _483  and  _485
REMARK  179  A    between atoms: _485  and  _486
REMARK  180  A    between atoms: _485  and  _488
REMARK  181  A    between atoms: _488  and  _489
REMARK  182  A    between atoms: _495  and  _497
REMARK  183  A    between atoms: _497  and  _498
REMARK  184  A    between atoms: _497  and  _500
REMARK  185  A    between atoms: _500  and  _501
REMARK  186  A    between atoms: _506  and  _508
REMARK  187  A    between atoms: _508  and  _509
REMARK  188  A    between atoms: _508  and  _511
REMARK  189  A    between atoms: _511  and  _512
REMARK  190  A    between atoms: _512  and  _513
REMARK  191  A    between atoms: _513  and  _514
REMARK  192  A    between atoms: _514  and  ZN_788
REMARK  193  A    between atoms: _516  and  _518
REMARK  194  A    between atoms: _518  and  _519
REMARK  195  A    between atoms: _522  and  _524
REMARK  196  A    between atoms: _524  and  _525
REMARK  197  A    between atoms: _527  and  _529
REMARK  198  A    between atoms: _529  and  _530
REMARK  199  A    between atoms: _529  and  _532
REMARK  200  A    between atoms: _532  and  _533
REMARK  201  A    between atoms: _536  and  _538
REMARK  202  A    between atoms: _538  and  _539
REMARK  203  A    between atoms: _538  and  _541
REMARK  204  A    between atoms: _544  and  _546
REMARK  205  A    between atoms: _546  and  _547
REMARK  206  A    between atoms: _546  and  _549
REMARK  207  A    between atoms: _549  and  _550
REMARK  208  A    between atoms: _552  and  _554
REMARK  209  A    between atoms: _554  and  _555
REMARK  210  A    between atoms: _554  and  _557
REMARK  211  A    between atoms: _557  and  _558
REMARK  212  A    between atoms: _561  and  _563
REMARK  213  A    between atoms: _563  and  _564
REMARK  214  A    between atoms: _563  and  _566
REMARK  215  A    between atoms: _566  and  _567
REMARK  216  A    between atoms: _570  and  _572
REMARK  217  A    between atoms: _572  and  _573
REMARK  218  A    between atoms: _572  and  _575
REMARK  219  A    between atoms: _575  and  _576
REMARK  220  A    between atoms: _576  and  _577
REMARK  221  A    between atoms: _577  and  _578
REMARK  222  A    between atoms: _578  and  _579
REMARK  223  A    between atoms: _583  and  _585
REMARK  224  A    between atoms: _585  and  _586
REMARK  225  A    between atoms: _585  and  _588
REMARK  226  A    between atoms: _588  and  _589
REMARK  227  A    between atoms: _595  and  _597
REMARK  228  A    between atoms: _597  and  _598
REMARK  229  A    between atoms: _597  and  _600
REMARK  230  A    between atoms: _600  and  _601
REMARK  231  A    between atoms: _607  and  _609
REMARK  232  A    between atoms: _609  and  _610
REMARK  233  A    between atoms: _613  and  _615
REMARK  234  A    between atoms: _615  and  _616
REMARK  235  A    between atoms: _615  and  _618
REMARK  236  A    between atoms: _618  and  _619
REMARK  237  A    between atoms: _619  and  _620
REMARK  238  A    between atoms: _622  and  _624
REMARK  239  A    between atoms: _624  and  _625
REMARK  240  A    between atoms: _624  and  _627
REMARK  241  A    between atoms: _627  and  _628
REMARK  242  A    between atoms: _628  and  _629
REMARK  243  A    between atoms: _629  and  _630
REMARK  244  A    between atoms: _630  and  _631
REMARK  245  A    between atoms: _635  and  _637
REMARK  246  A    between atoms: _637  and  _638
REMARK  247  A    between atoms: _637  and  _640
REMARK  248  A    between atoms: _640  and  _641
REMARK  249  A    between atoms: _646  and  _647
REMARK  250  A    between atoms: _649  and  _651
REMARK  251  A    between atoms: _651  and  _652
REMARK  252  A    between atoms: _651  and  _654
REMARK  253  A    between atoms: _654  and  _655
REMARK  254  A    between atoms: _660  and  _662
REMARK  255  A    between atoms: _662  and  _663
REMARK  256  A    between atoms: _662  and  _665
REMARK  257  A    between atoms: _665  and  _666
REMARK  258  A    between atoms: _669  and  _671
REMARK  259  A    between atoms: _671  and  _672
REMARK  260  A    between atoms: _675  and  _677
REMARK  261  A    between atoms: _677  and  _678
REMARK  262  A    between atoms: _677  and  _680
REMARK  263  A    between atoms: _680  and  _681
REMARK  264  A    between atoms: _684  and  _686
REMARK  265  A    between atoms: _686  and  _687
REMARK  266  A    between atoms: _686  and  _689
REMARK  267  A    between atoms: _692  and  _694
REMARK  268  A    between atoms: _694  and  _695
REMARK  269  A    between atoms: _694  and  _697
REMARK  270  A    between atoms: _697  and  _698
REMARK  271  A    between atoms: _698  and  _699
REMARK  272  A    between atoms: _702  and  _704
REMARK  273  A    between atoms: _704  and  _705
REMARK  274  A    between atoms: _704  and  _707
REMARK  275  A    between atoms: _707  and  _708
REMARK  276  A    between atoms: _713  and  _714
REMARK  277  A    between atoms: _716  and  _718
REMARK  278  A    between atoms: _718  and  _719
REMARK  279  A    between atoms: _718  and  _721
REMARK  280  A    between atoms: _721  and  _722
REMARK  281  A    between atoms: _722  and  _723
REMARK  282  A    between atoms: _723  and  _724
REMARK  283  A    between atoms: _733  and  _735
REMARK  284  A    between atoms: _735  and  _736
REMARK  285  A    between atoms: _735  and  _738
REMARK  286  A    between atoms: _738  and  _739
REMARK  287  A    between atoms: _744  and  _745
REMARK  288  A    between atoms: _747  and  _749
REMARK  289  A    between atoms: _749  and  _750
REMARK  290  A    between atoms: _749  and  _752
REMARK  291  A    between atoms: _752  and  _753
REMARK  292  A    between atoms: _756  and  _758
REMARK  293  A    between atoms: _758  and  _759
REMARK  294  A    between atoms: _758  and  _761
REMARK  295  A    between atoms: _761  and  _762
REMARK  296  A    between atoms: _764  and  _766
REMARK  297  A    between atoms: _766  and  _767
REMARK  298  A    between atoms: _766  and  _769
REMARK  299  A    between atoms: _769  and  _770
REMARK  300  A    between atoms: _776  and  _778
REMARK  301  A    between atoms: _778  and  _779
REMARK  302  A    between atoms: _778  and  _781
REMARK  303  A    between atoms: _781  and  _782
REMARK  304  A    between atoms: _782  and  _783
REMARK                            x       y       z     vdW  Elec       q    Type
REMARK                         _______ _______ _______ _____ _____    ______ ____
ROOT
ATOM      1  CB  ASN A   1      35.552  12.218 -35.963  0.00  0.00    +0.110 C 
ENDROOT
BRANCH   1   2
ATOM      2  CG  ASN A   1      35.213  10.866 -36.494  0.00  0.00    +0.221 C 
ATOM      3  OD1 ASN A   1      36.037   9.968 -36.479  0.00  0.00    -0.275 OA
ATOM      4  ND2 ASN A   1      33.995  10.708 -36.971  0.00  0.00    -0.329 N 
ATOM      5 HD21 ASN A   1      33.326  11.504 -36.963  0.00  0.00    +0.145 HD
ATOM      6 HD22 ASN A   1      33.703   9.787 -37.356  0.00  0.00    +0.145 HD
ENDBRANCH   1   2
BRANCH   1   7
ATOM      7  CA  ASN A   1      35.618  12.246 -34.428  0.00  0.00    +0.142 C 
BRANCH   7   8
ATOM      8  N   ASN A   1      36.052  13.557 -34.031  0.00  0.00    -0.239 NA
ATOM      9  H   ASN A   1      37.054  13.710 -33.800  0.00  0.00    +0.142 HD
ENDBRANCH   7   8
BRANCH   7  10
ATOM     10  C   ASN A   1      36.597  11.223 -33.903  0.00  0.00    +0.225 C 
ATOM     11  O   ASN A   1      37.791  11.470 -33.891  0.00  0.00    -0.287 OA
ENDBRANCH   7  10
ENDBRANCH   1   7
TORSDOF 4
REMARK  Name = ../refined-set-2016/4ca8/4ca8_pocket.pdb
REMARK  304 active torsions:
REMARK  status: ('A' for Active; 'I' for Inactive)
REMARK    1  A    between atoms: _1  and  _3
REMARK    2  A    between atoms: _3  and  _4
REMARK    3  A    between atoms: _3  and  _6
REMARK    4  A    between atoms: _6  and  _7
REMARK    5  A    between atoms: _7  and  _8
REMARK    6  A    between atoms: _11  and  _13
REMARK    7  A    between atoms: _13  and  _14
REMARK    8  A    between atoms: _13  and  _16
REMARK    9  A    between atoms: _16  and  _17
REMARK   10  A    between atoms: _17  and  _18
REMARK   11  A    between atoms: _21  and  _23
REMARK   12  A    between atoms: _23  and  _24
REMARK   13  A    between atoms: _23  and  _26
REMARK   14  A    between atoms: _26  and  _27
REMARK   15  A    between atoms: _32  and  _34
REMARK   16  A    between atoms: _34  and  _35
REMARK   17  A    between atoms: _34  and  _37
REMARK   18  A    between atoms: _37  and  _38
REMARK   19  A    between atoms: _48  and  _50
REMARK   20  A    between atoms: _50  and  _51
REMARK   21  A    between atoms: _50  and  _53
REMARK   22  A    between atoms: _53  and  _54
REMARK   23  A    between atoms: _54  and  _55
REMARK   24  A    between atoms: _60  and  _62
REMARK   25  A    between atoms: _62  and  _63
REMARK   26  A    between atoms: _62  and  _65
REMARK   27  A    between atoms: _65  and  _66
REMARK   28  A    between atoms: _66  and  _67
REMARK   29  A    between atoms: _72  and  _74
REMARK   30  A    between atoms: _74  and  _75
REMARK   31  A    between atoms: _74  and  _77
REMARK   32  A    between atoms: _77  and  _78
REMARK   33  A    between atoms: _80  and  _82
REMARK   34  A    between atoms: _82  and  _83
REMARK   35  A    between atoms: _82  and  _85
REMARK   36  A    between atoms: _85  and  _86
REMARK   37  A    between atoms: _86  and  _87
REMARK   38  A    between atoms: _90  and  _92
REMARK   39  A    between atoms: _92  and  _93
REMARK   40  A    between atoms: _92  and  _95
REMARK   41  A    between atoms: _98  and  _100
REMARK   42  A    between atoms: _100  and  _101
REMARK   43  A    between atoms: _100  and  _103
REMARK   44  A    between atoms: _105  and  _107
REMARK   45  A    between atoms: _107  and  _108
REMARK   46  A    between atoms: _107  and  _110
REMARK   47  A    between atoms: _110  and  _111
REMARK   48  A    between atoms: _116  and  _118
REMARK   49  A    between atoms: _118  and  _119
REMARK   50  A    between atoms: _122  and  _124
REMARK   51  A    between atoms: _124  and  _125
REMARK   52  A    between atoms: _124  and  _127
REMARK   53  A    between atoms: _127  and  _128
REMARK   54  A    between atoms: _130  and  _132
REMARK   55  A    between atoms: _132  and  _133
REMARK   56  A    between atoms: _136  and  _138
REMARK   57  A    between atoms: _138  and  _139
REMARK   58  A    between atoms: _138  and  _141
REMARK   59  A    between atoms: _141  and  _142
REMARK   60  A    between atoms: _152  and  _154
REMARK   61  A    between atoms: _154  and  _155
REMARK   62  A    between atoms: _154  and  _157
REMARK   63  A    between atoms: _157  and  _158
REMARK   64  A    between atoms: _161  and  _163
REMARK   65  A    between atoms: _163  and  _164
REMARK   66  A    between atoms: _163  and  _166
REMARK   67  A    between atoms: _166  and  _167
REMARK   68  A    between atoms: _172  and  _173
REMARK   69  A    between atoms: _175  and  _177
REMARK   70  A    between atoms: _177  and  _178
REMARK   71  A    between atoms: _177  and  _180
REMARK   72  A    between atoms: _180  and  _181
REMARK   73  A    between atoms: _181  and  _182
REMARK   74  A    between atoms: _182  and  _183
REMARK   75  A    between atoms: _192  and  _194
REMARK   76  A    between atoms: _194  and  _195
REMARK   77  A    between atoms: _194  and  _197
REMARK   78  A    between atoms: _197  and  _198
REMARK   79  A    between atoms: _201  and  _203
REMARK   80  A    between atoms: _203  and  _204
REMARK   81  A    between atoms: _203  and  _206
REMARK   82  A    between atoms: _206  and  _207
REMARK   83  A    between atoms: _207  and  _208
REMARK   84  A    between atoms: _208  and  _209
REMARK   85  A    between atoms: _209  and  _210
REMARK   86  A    between atoms: _214  and  _216
REMARK   87  A    between atoms: _216  and  _217
REMARK   88  A    between atoms: _216  and  _219
REMARK   89  A    between atoms: _219  and  _220
REMARK   90  A    between atoms: _220  and  _221
REMARK   91  A    between atoms: _226  and  _228
REMARK   92  A    between atoms: _228  and  _229
REMARK   93  A    between atoms: _228  and  _231
REMARK   94  A    between atoms: _231  and  _232
REMARK   95  A    between atoms: _232  and  _233
REMARK   96  A    between atoms: _233  and  _234
REMARK   97  A    between atoms: _243  and  _245
REMARK   98  A    between atoms: _245  and  _246
REMARK   99  A    between atoms: _245  and  _248
REMARK  100  A    between atoms: _248  and  _249
REMARK  101  A    between atoms: _252  and  _254
REMARK  102  A    between atoms: _254  and  _255
REMARK  103  A    between atoms: _254  and  _257
REMARK  104  A    between atoms: _257  and  _258
REMARK  105  A    between atoms: _258  and  _259
REMARK  106  A    between atoms: _264  and  _266
REMARK  107  A    between atoms: _266  and  _267
REMARK  108  A    between atoms: _266  and  _269
REMARK  109  A    between atoms: _269  and  _270
REMARK  110  A    between atoms: _273  and  _275
REMARK  111  A    between atoms: _275  and  _276
REMARK  112  A    between atoms: _275  and  _278
REMARK  113  A    between atoms: _278  and  _279
REMARK  114  A    between atoms: _279  and  _280
REMARK  115  A    between atoms: _285  and  _287
REMARK  116  A    between atoms: _287  and  _288
REMARK  117  A    between atoms: _287  and  _290
REMARK  118  A    between atoms: _290  and  _291
REMARK  119  A    between atoms: _294  and  _296
REMARK  120  A    between atoms: _296  and  _297
REMARK  121  A    between atoms: _296  and  _299
REMARK  122  A    between atoms: _299  and  _300
REMARK  123  A    between atoms: _306  and  _308
REMARK  124  A    between atoms: _308  and  _309
REMARK  125  A    between atoms: _308  and  _311
REMARK  126  A    between atoms: _311  and  _312
REMARK  127  A    between atoms: _315  and  _317
REMARK  128  A    between atoms: _317  and  _318
REMARK  129  A    between atoms: _317  and  _320
REMARK  130  A    between atoms: _323  and  _325
REMARK  131  A    between atoms: _325  and  _326
REMARK  132  A    between atoms: _325  and  _328
REMARK  133  A    between atoms: _328  and  _329
REMARK  134  A    between atoms: _334  and  _336
REMARK  135  A    between atoms: _347  and  _350
REMARK  136  A    between atoms: _350  and  _351
REMARK  137  A    between atoms: _351  and  _352
REMARK  138  A    between atoms: _357  and  _360
REMARK  139  A    between atoms: _360  and  _361
REMARK  140  A    between atoms: _371  and  _372
REMARK  141  A    between atoms: _380  and  _382
REMARK  142  A    between atoms: _382  and  _383
REMARK  143  A    between atoms: _382  and  _385
REMARK  144  A    between atoms: _385  and  _386
REMARK  145  A    between atoms: _389  and  _391
REMARK  146  A    between atoms: _391  and  _392
REMARK  147  A    between atoms: _391  and  _394
REMARK  148  A    between atoms: _394  and  _395
REMARK  149  A    between atoms: _400  and  _401
REMARK  150  A    between atoms: _403  and  _405
REMARK  151  A    between atoms: _405  and  _406
REMARK  152  A    between atoms: _405  and  _408
REMARK  153  A    between atoms: _408  and  _409
REMARK  154  A    between atoms: _415  and  _417
REMARK  155  A    between atoms: _417  and  _418
REMARK  156  A    between atoms: _417  and  _420
REMARK  157  A    between atoms: _420  and  _421
REMARK  158  A    between atoms: _426  and  _427
REMARK  159  A    between atoms: _429  and  _431
REMARK  160  A    between atoms: _431  and  _432
REMARK  161  A    between atoms: _431  and  _434
REMARK  162  A    between atoms: _434  and  _435
REMARK  163  A    between atoms: _435  and  _436
REMARK  164  A    between atoms: _436  and  _437
REMARK  165  A    between atoms: _446  and  _448
REMARK  166  A    between atoms: _448  and  _449
REMARK  167  A    between atoms: _448  and  _451
REMARK  168  A    between atoms: _451  and  _452
REMARK  169  A    between atoms: _455  and  _457
REMARK  170  A    between atoms: _457  and  _458
REMARK  171  A    between atoms: _460  and  _462
REMARK  172  A    between atoms: _462  and  _463
REMARK  173  A    between atoms: _462  and  _465
REMARK  174  A    between atoms: _465  and  _466
REMARK  175  A    between atoms: _472  and  _473
REMARK  176  A    between atoms: _478  and  _480
REMARK  177  A    between atoms: _480  and  _481
REMARK  178  A    between atoms: _483  and  _485
REMARK  179  A    between atoms: _485  and  _486
REMARK  180  A    between atoms: _485  and  _488
REMARK  181  A    between atoms: _488  and  _489
REMARK  182  A    between atoms: _495  and  _497
REMARK  183  A    between atoms: _497  and  _498
REMARK  184  A    between atoms: _497  and  _500
REMARK  185  A    between atoms: _500  and  _501
REMARK  186  A    between atoms: _506  and  _508
REMARK  187  A    between atoms: _508  and  _509
REMARK  188  A    between atoms: _508  and  _511
REMARK  189  A    between atoms: _511  and  _512
REMARK  190  A    between atoms: _512  and  _513
REMARK  191  A    between atoms: _513  and  _514
REMARK  192  A    between atoms: _514  and  ZN_788
REMARK  193  A    between atoms: _516  and  _518
REMARK  194  A    between atoms: _518  and  _519
REMARK  195  A    between atoms: _522  and  _524
REMARK  196  A    between atoms: _524  and  _525
REMARK  197  A    between atoms: _527  and  _529
REMARK  198  A    between atoms: _529  and  _530
REMARK  199  A    between atoms: _529  and  _532
REMARK  200  A    between atoms: _532  and  _533
REMARK  201  A    between atoms: _536  and  _538
REMARK  202  A    between atoms: _538  and  _539
REMARK  203  A    between atoms: _538  and  _541
REMARK  204  A    between atoms: _544  and  _546
REMARK  205  A    between atoms: _546  and  _547
REMARK  206  A    between atoms: _546  and  _549
REMARK  207  A    between atoms: _549  and  _550
REMARK  208  A    between atoms: _552  and  _554
REMARK  209  A    between atoms: _554  and  _555
REMARK  210  A    between atoms: _554  and  _557
REMARK  211  A    between atoms: _557  and  _558
REMARK  212  A    between atoms: _561  and  _563
REMARK  213  A    between atoms: _563  and  _564
REMARK  214  A    between atoms: _563  and  _566
REMARK  215  A    between atoms: _566  and  _567
REMARK  216  A    between atoms: _570  and  _572
REMARK  217  A    between atoms: _572  and  _573
REMARK  218  A    between atoms: _572  and  _575
REMARK  219  A    between atoms: _575  and  _576
REMARK  220  A    between atoms: _576  and  _577
REMARK  221  A    between atoms: _577  and  _578
REMARK  222  A    between atoms: _578  and  _579
REMARK  223  A    between atoms: _583  and  _585
REMARK  224  A    between atoms: _585  and  _586
REMARK  225  A    between atoms: _585  and  _588
REMARK  226  A    between atoms: _588  and  _589
REMARK  227  A    between atoms: _595  and  _597
REMARK  228  A    between atoms: _597  and  _598
REMARK  229  A    between atoms: _597  and  _600
REMARK  230  A    between atoms: _600  and  _601
REMARK  231  A    between atoms: _607  and  _609
REMARK  232  A    between atoms: _609  and  _610
REMARK  233  A    between atoms: _613  and  _615
REMARK  234  A    between atoms: _615  and  _616
REMARK  235  A    between atoms: _615  and  _618
REMARK  236  A    between atoms: _618  and  _619
REMARK  237  A    between atoms: _619  and  _620
REMARK  238  A    between atoms: _622  and  _624
REMARK  239  A    between atoms: _624  and  _625
REMARK  240  A    between atoms: _624  and  _627
REMARK  241  A    between atoms: _627  and  _628
REMARK  242  A    between atoms: _628  and  _629
REMARK  243  A    between atoms: _629  and  _630
REMARK  244  A    between atoms: _630  and  _631
REMARK  245  A    between atoms: _635  and  _637
REMARK  246  A    between atoms: _637  and  _638
REMARK  247  A    between atoms: _637  and  _640
REMARK  248  A    between atoms: _640  and  _641
REMARK  249  A    between atoms: _646  and  _647
REMARK  250  A    between atoms: _649  and  _651
REMARK  251  A    between atoms: _651  and  _652
REMARK  252  A    between atoms: _651  and  _654
REMARK  253  A    between atoms: _654  and  _655
REMARK  254  A    between atoms: _660  and  _662
REMARK  255  A    between atoms: _662  and  _663
REMARK  256  A    between atoms: _662  and  _665
REMARK  257  A    between atoms: _665  and  _666
REMARK  258  A    between atoms: _669  and  _671
REMARK  259  A    between atoms: _671  and  _672
REMARK  260  A    between atoms: _675  and  _677
REMARK  261  A    between atoms: _677  and  _678
REMARK  262  A    between atoms: _677  and  _680
REMARK  263  A    between atoms: _680  and  _681
REMARK  264  A    between atoms: _684  and  _686
REMARK  265  A    between atoms: _686  and  _687
REMARK  266  A    between atoms: _686  and  _689
REMARK  267  A    between atoms: _692  and  _694
REMARK  268  A    between atoms: _694  and  _695
REMARK  269  A    between atoms: _694  and  _697
REMARK  270  A    between atoms: _697  and  _698
REMARK  271  A    between atoms: _698  and  _699
REMARK  272  A    between atoms: _702  and  _704
REMARK  273  A    between atoms: _704  and  _705
REMARK  274  A    between atoms: _704  and  _707
REMARK  275  A    between atoms: _707  and  _708
REMARK  276  A    between atoms: _713  and  _714
REMARK  277  A    between atoms: _716  and  _718
REMARK  278  A    between atoms: _718  and  _719
REMARK  279  A    between atoms: _718  and  _721
REMARK  280  A    between atoms: _721  and  _722
REMARK  281  A    between atoms: _722  and  _723
REMARK  282  A    between atoms: _723  and  _724
REMARK  283  A    between atoms: _733  and  _735
REMARK  284  A    between atoms: _735  and  _736
REMARK  285  A    between atoms: _735  and  _738
REMARK  286  A    between atoms: _738  and  _739
REMARK  287  A    between atoms: _744  and  _745
REMARK  288  A    between atoms: _747  and  _749
REMARK  289  A    between atoms: _749  and  _750
REMARK  290  A    between atoms: _749  and  _752
REMARK  291  A    between atoms: _752  and  _753
REMARK  292  A    between atoms: _756  and  _758
REMARK  293  A    between atoms: _758  and  _759
REMARK  294  A    between atoms: _758  and  _761
REMARK  295  A    between atoms: _761  and  _762
REMARK  296  A    between atoms: _764  and  _766
REMARK  297  A    between atoms: _766  and  _767
REMARK  298  A    between atoms: _766  and  _769
REMARK  299  A    between atoms: _769  and  _770
REMARK  300  A    between atoms: _776  and  _778
REMARK  301  A    between atoms: _778  and  _779
REMARK  302  A    between atoms: _778  and  _781
REMARK  303  A    between atoms: _781  and  _782
REMARK  304  A    between atoms: _782  and  _783
REMARK                            x       y       z     vdW  Elec       q    Type
REMARK                         _______ _______ _______ _____ _____    ______ ____
ROOT
ATOM      1  CG  TRP A   1      37.368   5.919 -35.687  0.00  0.00    -0.002 A 
ATOM      2  CD1 TRP A   1      37.871   4.848 -35.025  0.00  0.00    +0.068 A 
ATOM      3  NE1 TRP A   1      36.907   4.290 -34.222  0.00  0.00    -0.352 N 
ATOM      4  HE1 TRP A   1      37.038   3.457 -33.613  0.00  0.00    +0.166 HD
ATOM      5  CE2 TRP A   1      35.749   5.003 -34.351  0.00  0.00    +0.056 A 
ATOM      6  CZ2 TRP A   1      34.510   4.812 -33.753  0.00  0.00    +0.017 A 
ATOM      7  CH2 TRP A   1      33.524   5.699 -34.062  0.00  0.00    +0.001 A 
ATOM      8  CZ3 TRP A   1      33.745   6.763 -34.953  0.00  0.00    +0.000 A 
ATOM      9  CE3 TRP A   1      34.973   6.939 -35.557  0.00  0.00    +0.001 A 
ATOM     10  CD2 TRP A   1      36.001   6.048 -35.258  0.00  0.00    +0.013 A 
ENDROOT
BRANCH   1  11
ATOM     11  CB  TRP A   1      38.119   6.827 -36.610  0.00  0.00    +0.053 C 
BRANCH  11  12
ATOM     12  CA  TRP A   1      38.837   7.912 -35.805  0.00  0.00    +0.137 C 
BRANCH  12  13
ATOM     13  N   TRP A   1      37.866   8.508 -34.893  0.00  0.00    -0.239 NA
ATOM     14  H   TRP A   1      37.010   8.948 -35.286  0.00  0.00    +0.142 HD
ENDBRANCH  12  13
BRANCH  12  15
ATOM     15  C   TRP A   1      39.494   8.963 -36.707  0.00  0.00    +0.224 C 
ATOM     16  O   TRP A   1      40.330   8.626 -37.549  0.00  0.00    -0.287 OA
ENDBRANCH  12  15
ENDBRANCH  11  12
ENDBRANCH   1  11
TORSDOF 4
REMARK  Name = ../refined-set-2016/4ca8/4ca8_pocket.pdb
REMARK  304 active torsions:
REMARK  status: ('A' for Active; 'I' for Inactive)
REMARK    1  A    between atoms: _1  and  _3
REMARK    2  A    between atoms: _3  and  _4
REMARK    3  A    between atoms: _3  and  _6
REMARK    4  A    between atoms: _6  and  _7
REMARK    5  A    between atoms: _7  and  _8
REMARK    6  A    between atoms: _11  and  _13
REMARK    7  A    between atoms: _13  and  _14
REMARK    8  A    between atoms: _13  and  _16
REMARK    9  A    between atoms: _16  and  _17
REMARK   10  A    between atoms: _17  and  _18
REMARK   11  A    between atoms: _21  and  _23
REMARK   12  A    between atoms: _23  and  _24
REMARK   13  A    between atoms: _23  and  _26
REMARK   14  A    between atoms: _26  and  _27
REMARK   15  A    between atoms: _32  and  _34
REMARK   16  A    between atoms: _34  and  _35
REMARK   17  A    between atoms: _34  and  _37
REMARK   18  A    between atoms: _37  and  _38
REMARK   19  A    between atoms: _48  and  _50
REMARK   20  A    between atoms: _50  and  _51
REMARK   21  A    between atoms: _50  and  _53
REMARK   22  A    between atoms: _53  and  _54
REMARK   23  A    between atoms: _54  and  _55
REMARK   24  A    between atoms: _60  and  _62
REMARK   25  A    between atoms: _62  and  _63
REMARK   26  A    between atoms: _62  and  _65
REMARK   27  A    between atoms: _65  and  _66
REMARK   28  A    between atoms: _66  and  _67
REMARK   29  A    between atoms: _72  and  _74
REMARK   30  A    between atoms: _74  and  _75
REMARK   31  A    between atoms: _74  and  _77
REMARK   32  A    between atoms: _77  and  _78
REMARK   33  A    between atoms: _80  and  _82
REMARK   34  A    between atoms: _82  and  _83
REMARK   35  A    between atoms: _82  and  _85
REMARK   36  A    between atoms: _85  and  _86
REMARK   37  A    between atoms: _86  and  _87
REMARK   38  A    between atoms: _90  and  _92
REMARK   39  A    between atoms: _92  and  _93
REMARK   40  A    between atoms: _92  and  _95
REMARK   41  A    between atoms: _98  and  _100
REMARK   42  A    between atoms: _100  and  _101
REMARK   43  A    between atoms: _100  and  _103
REMARK   44  A    between atoms: _105  and  _107
REMARK   45  A    between atoms: _107  and  _108
REMARK   46  A    between atoms: _107  and  _110
REMARK   47  A    between atoms: _110  and  _111
REMARK   48  A    between atoms: _116  and  _118
REMARK   49  A    between atoms: _118  and  _119
REMARK   50  A    between atoms: _122  and  _124
REMARK   51  A    between atoms: _124  and  _125
REMARK   52  A    between atoms: _124  and  _127
REMARK   53  A    between atoms: _127  and  _128
REMARK   54  A    between atoms: _130  and  _132
REMARK   55  A    between atoms: _132  and  _133
REMARK   56  A    between atoms: _136  and  _138
REMARK   57  A    between atoms: _138  and  _139
REMARK   58  A    between atoms: _138  and  _141
REMARK   59  A    between atoms: _141  and  _142
REMARK   60  A    between atoms: _152  and  _154
REMARK   61  A    between atoms: _154  and  _155
REMARK   62  A    between atoms: _154  and  _157
REMARK   63  A    between atoms: _157  and  _158
REMARK   64  A    between atoms: _161  and  _163
REMARK   65  A    between atoms: _163  and  _164
REMARK   66  A    between atoms: _163  and  _166
REMARK   67  A    between atoms: _166  and  _167
REMARK   68  A    between atoms: _172  and  _173
REMARK   69  A    between atoms: _175  and  _177
REMARK   70  A    between atoms: _177  and  _178
REMARK   71  A    between atoms: _177  and  _180
REMARK   72  A    between atoms: _180  and  _181
REMARK   73  A    between atoms: _181  and  _182
REMARK   74  A    between atoms: _182  and  _183
REMARK   75  A    between atoms: _192  and  _194
REMARK   76  A    between atoms: _194  and  _195
REMARK   77  A    between atoms: _194  and  _197
REMARK   78  A    between atoms: _197  and  _198
REMARK   79  A    between atoms: _201  and  _203
REMARK   80  A    between atoms: _203  and  _204
REMARK   81  A    between atoms: _203  and  _206
REMARK   82  A    between atoms: _206  and  _207
REMARK   83  A    between atoms: _207  and  _208
REMARK   84  A    between atoms: _208  and  _209
REMARK   85  A    between atoms: _209  and  _210
REMARK   86  A    between atoms: _214  and  _216
REMARK   87  A    between atoms: _216  and  _217
REMARK   88  A    between atoms: _216  and  _219
REMARK   89  A    between atoms: _219  and  _220
REMARK   90  A    between atoms: _220  and  _221
REMARK   91  A    between atoms: _226  and  _228
REMARK   92  A    between atoms: _228  and  _229
REMARK   93  A    between atoms: _228  and  _231
REMARK   94  A    between atoms: _231  and  _232
REMARK   95  A    between atoms: _232  and  _233
REMARK   96  A    between atoms: _233  and  _234
REMARK   97  A    between atoms: _243  and  _245
REMARK   98  A    between atoms: _245  and  _246
REMARK   99  A    between atoms: _245  and  _248
REMARK  100  A    between atoms: _248  and  _249
REMARK  101  A    between atoms: _252  and  _254
REMARK  102  A    between atoms: _254  and  _255
REMARK  103  A    between atoms: _254  and  _257
REMARK  104  A    between atoms: _257  and  _258
REMARK  105  A    between atoms: _258  and  _259
REMARK  106  A    between atoms: _264  and  _266
REMARK  107  A    between atoms: _266  and  _267
REMARK  108  A    between atoms: _266  and  _269
REMARK  109  A    between atoms: _269  and  _270
REMARK  110  A    between atoms: _273  and  _275
REMARK  111  A    between atoms: _275  and  _276
REMARK  112  A    between atoms: _275  and  _278
REMARK  113  A    between atoms: _278  and  _279
REMARK  114  A    between atoms: _279  and  _280
REMARK  115  A    between atoms: _285  and  _287
REMARK  116  A    between atoms: _287  and  _288
REMARK  117  A    between atoms: _287  and  _290
REMARK  118  A    between atoms: _290  and  _291
REMARK  119  A    between atoms: _294  and  _296
REMARK  120  A    between atoms: _296  and  _297
REMARK  121  A    between atoms: _296  and  _299
REMARK  122  A    between atoms: _299  and  _300
REMARK  123  A    between atoms: _306  and  _308
REMARK  124  A    between atoms: _308  and  _309
REMARK  125  A    between atoms: _308  and  _311
REMARK  126  A    between atoms: _311  and  _312
REMARK  127  A    between atoms: _315  and  _317
REMARK  128  A    between atoms: _317  and  _318
REMARK  129  A    between atoms: _317  and  _320
REMARK  130  A    between atoms: _323  and  _325
REMARK  131  A    between atoms: _325  and  _326
REMARK  132  A    between atoms: _325  and  _328
REMARK  133  A    between atoms: _328  and  _329
REMARK  134  A    between atoms: _334  and  _336
REMARK  135  A    between atoms: _347  and  _350
REMARK  136  A    between atoms: _350  and  _351
REMARK  137  A    between atoms: _351  and  _352
REMARK  138  A    between atoms: _357  and  _360
REMARK  139  A    between atoms: _360  and  _361
REMARK  140  A    between atoms: _371  and  _372
REMARK  141  A    between atoms: _380  and  _382
REMARK  142  A    between atoms: _382  and  _383
REMARK  143  A    between atoms: _382  and  _385
REMARK  144  A    between atoms: _385  and  _386
REMARK  145  A    between atoms: _389  and  _391
REMARK  146  A    between atoms: _391  and  _392
REMARK  147  A    between atoms: _391  and  _394
REMARK  148  A    between atoms: _394  and  _395
REMARK  149  A    between atoms: _400  and  _401
REMARK  150  A    between atoms: _403  and  _405
REMARK  151  A    between atoms: _405  and  _406
REMARK  152  A    between atoms: _405  and  _408
REMARK  153  A    between atoms: _408  and  _409
REMARK  154  A    between atoms: _415  and  _417
REMARK  155  A    between atoms: _417  and  _418
REMARK  156  A    between atoms: _417  and  _420
REMARK  157  A    between atoms: _420  and  _421
REMARK  158  A    between atoms: _426  and  _427
REMARK  159  A    between atoms: _429  and  _431
REMARK  160  A    between atoms: _431  and  _432
REMARK  161  A    between atoms: _431  and  _434
REMARK  162  A    between atoms: _434  and  _435
REMARK  163  A    between atoms: _435  and  _436
REMARK  164  A    between atoms: _436  and  _437
REMARK  165  A    between atoms: _446  and  _448
REMARK  166  A    between atoms: _448  and  _449
REMARK  167  A    between atoms: _448  and  _451
REMARK  168  A    between atoms: _451  and  _452
REMARK  169  A    between atoms: _455  and  _457
REMARK  170  A    between atoms: _457  and  _458
REMARK  171  A    between atoms: _460  and  _462
REMARK  172  A    between atoms: _462  and  _463
REMARK  173  A    between atoms: _462  and  _465
REMARK  174  A    between atoms: _465  and  _466
REMARK  175  A    between atoms: _472  and  _473
REMARK  176  A    between atoms: _478  and  _480
REMARK  177  A    between atoms: _480  and  _481
REMARK  178  A    between atoms: _483  and  _485
REMARK  179  A    between atoms: _485  and  _486
REMARK  180  A    between atoms: _485  and  _488
REMARK  181  A    between atoms: _488  and  _489
REMARK  182  A    between atoms: _495  and  _497
REMARK  183  A    between atoms: _497  and  _498
REMARK  184  A    between atoms: _497  and  _500
REMARK  185  A    between atoms: _500  and  _501
REMARK  186  A    between atoms: _506  and  _508
REMARK  187  A    between atoms: _508  and  _509
REMARK  188  A    between atoms: _508  and  _511
REMARK  189  A    between atoms: _511  and  _512
REMARK  190  A    between atoms: _512  and  _513
REMARK  191  A    between atoms: _513  and  _514
REMARK  192  A    between atoms: _514  and  ZN_788
REMARK  193  A    between atoms: _516  and  _518
REMARK  194  A    between atoms: _518  and  _519
REMARK  195  A    between atoms: _522  and  _524
REMARK  196  A    between atoms: _524  and  _525
REMARK  197  A    between atoms: _527  and  _529
REMARK  198  A    between atoms: _529  and  _530
REMARK  199  A    between atoms: _529  and  _532
REMARK  200  A    between atoms: _532  and  _533
REMARK  201  A    between atoms: _536  and  _538
REMARK  202  A    between atoms: _538  and  _539
REMARK  203  A    between atoms: _538  and  _541
REMARK  204  A    between atoms: _544  and  _546
REMARK  205  A    between atoms: _546  and  _547
REMARK  206  A    between atoms: _546  and  _549
REMARK  207  A    between atoms: _549  and  _550
REMARK  208  A    between atoms: _552  and  _554
REMARK  209  A    between atoms: _554  and  _555
REMARK  210  A    between atoms: _554  and  _557
REMARK  211  A    between atoms: _557  and  _558
REMARK  212  A    between atoms: _561  and  _563
REMARK  213  A    between atoms: _563  and  _564
REMARK  214  A    between atoms: _563  and  _566
REMARK  215  A    between atoms: _566  and  _567
REMARK  216  A    between atoms: _570  and  _572
REMARK  217  A    between atoms: _572  and  _573
REMARK  218  A    between atoms: _572  and  _575
REMARK  219  A    between atoms: _575  and  _576
REMARK  220  A    between atoms: _576  and  _577
REMARK  221  A    between atoms: _577  and  _578
REMARK  222  A    between atoms: _578  and  _579
REMARK  223  A    between atoms: _583  and  _585
REMARK  224  A    between atoms: _585  and  _586
REMARK  225  A    between atoms: _585  and  _588
REMARK  226  A    between atoms: _588  and  _589
REMARK  227  A    between atoms: _595  and  _597
REMARK  228  A    between atoms: _597  and  _598
REMARK  229  A    between atoms: _597  and  _600
REMARK  230  A    between atoms: _600  and  _601
REMARK  231  A    between atoms: _607  and  _609
REMARK  232  A    between atoms: _609  and  _610
REMARK  233  A    between atoms: _613  and  _615
REMARK  234  A    between atoms: _615  and  _616
REMARK  235  A    between atoms: _615  and  _618
REMARK  236  A    between atoms: _618  and  _619
REMARK  237  A    between atoms: _619  and  _620
REMARK  238  A    between atoms: _622  and  _624
REMARK  239  A    between atoms: _624  and  _625
REMARK  240  A    between atoms: _624  and  _627
REMARK  241  A    between atoms: _627  and  _628
REMARK  242  A    between atoms: _628  and  _629
REMARK  243  A    between atoms: _629  and  _630
REMARK  244  A    between atoms: _630  and  _631
REMARK  245  A    between atoms: _635  and  _637
REMARK  246  A    between atoms: _637  and  _638
REMARK  247  A    between atoms: _637  and  _640
REMARK  248  A    between atoms: _640  and  _641
REMARK  249  A    between atoms: _646  and  _647
REMARK  250  A    between atoms: _649  and  _651
REMARK  251  A    between atoms: _651  and  _652
REMARK  252  A    between atoms: _651  and  _654
REMARK  253  A    between atoms: _654  and  _655
REMARK  254  A    between atoms: _660  and  _662
REMARK  255  A    between atoms: _662  and  _663
REMARK  256  A    between atoms: _662  and  _665
REMARK  257  A    between atoms: _665  and  _666
REMARK  258  A    between atoms: _669  and  _671
REMARK  259  A    between atoms: _671  and  _672
REMARK  260  A    between atoms: _675  and  _677
REMARK  261  A    between atoms: _677  and  _678
REMARK  262  A    between atoms: _677  and  _680
REMARK  263  A    between atoms: _680  and  _681
REMARK  264  A    between atoms: _684  and  _686
REMARK  265  A    between atoms: _686  and  _687
REMARK  266  A    between atoms: _686  and  _689
REMARK  267  A    between atoms: _692  and  _694
REMARK  268  A    between atoms: _694  and  _695
REMARK  269  A    between atoms: _694  and  _697
REMARK  270  A    between atoms: _697  and  _698
REMARK  271  A    between atoms: _698  and  _699
REMARK  272  A    between atoms: _702  and  _704
REMARK  273  A    between atoms: _704  and  _705
REMARK  274  A    between atoms: _704  and  _707
REMARK  275  A    between atoms: _707  and  _708
REMARK  276  A    between atoms: _713  and  _714
REMARK  277  A    between atoms: _716  and  _718
REMARK  278  A    between atoms: _718  and  _719
REMARK  279  A    between atoms: _718  and  _721
REMARK  280  A    between atoms: _721  and  _722
REMARK  281  A    between atoms: _722  and  _723
REMARK  282  A    between atoms: _723  and  _724
REMARK  283  A    between atoms: _733  and  _735
REMARK  284  A    between atoms: _735  and  _736
REMARK  285  A    between atoms: _735  and  _738
REMARK  286  A    between atoms: _738  and  _739
REMARK  287  A    between atoms: _744  and  _745
REMARK  288  A    between atoms: _747  and  _749
REMARK  289  A    between atoms: _749  and  _750
REMARK  290  A    between atoms: _749  and  _752
REMARK  291  A    between atoms: _752  and  _753
REMARK  292  A    between atoms: _756  and  _758
REMARK  293  A    between atoms: _758  and  _759
REMARK  294  A    between atoms: _758  and  _761
REMARK  295  A    between atoms: _761  and  _762
REMARK  296  A    between atoms: _764  and  _766
REMARK  297  A    between atoms: _766  and  _767
REMARK  298  A    between atoms: _766  and  _769
REMARK  299  A    between atoms: _769  and  _770
REMARK  300  A    between atoms: _776  and  _778
REMARK  301  A    between atoms: _778  and  _779
REMARK  302  A    between atoms: _778  and  _781
REMARK  303  A    between atoms: _781  and  _782
REMARK  304  A    between atoms: _782  and  _783
REMARK                            x       y       z     vdW  Elec       q    Type
REMARK                         _______ _______ _______ _____ _____    ______ ____
ROOT
ATOM      1  C   GLN A   1      37.143  11.323 -41.215  0.00  0.00    +0.238 C 
ATOM      2  N   GLN A   2      36.458  12.159 -40.444  0.00  0.00    -0.298 N 
ATOM      3  H   GLN A   2      36.378  11.920 -39.435  0.00  0.00    +0.150 HD
ATOM      4  O   GLN A   1      37.241  11.429 -42.460  0.00  0.00    -0.274 OA
ENDROOT
BRANCH   1   5
ATOM      5  CA  GLN A   1      37.794  10.168 -40.469  0.00  0.00    +0.145 C 
BRANCH   5   6
ATOM      6  N   GLN A   1      38.139  10.499 -39.059  0.00  0.00    -0.238 NA
ATOM      7  H   GLN A   1      37.513  10.174 -38.295  0.00  0.00    +0.142 HD
ENDBRANCH   5   6
BRANCH   5   8
ATOM      8  CB  GLN A   1      36.887   8.938 -40.509  0.00  0.00    +0.036 C 
BRANCH   8   9
ATOM      9  CG  GLN A   1      35.495   9.125 -39.912  0.00  0.00    +0.087 C 
BRANCH   9  10
ATOM     10  CD  GLN A   1      34.797   7.811 -39.619  0.00  0.00    +0.219 C 
ATOM     11  OE1 GLN A   1      35.421   6.802 -39.307  0.00  0.00    -0.275 OA
ATOM     12  NE2 GLN A   1      33.491   7.822 -39.715  0.00  0.00    -0.329 N 
ATOM     13 HE21 GLN A   1      32.948   6.956 -39.524  0.00  0.00    +0.145 HD
ATOM     14 HE22 GLN A   1      32.997   8.697 -39.982  0.00  0.00    +0.145 HD
ENDBRANCH   9  10
ENDBRANCH   8   9
ENDBRANCH   5   8
ENDBRANCH   1   5
BRANCH   2  15
ATOM     15  CA  GLN A   2      35.809  13.384 -40.894  0.00  0.00    +0.137 C 
BRANCH  15  16
ATOM     16  C   GLN A   2      35.945  14.439 -39.796  0.00  0.00    +0.227 C 
ATOM     17  O   GLN A   2      35.827  14.107 -38.607  0.00  0.00    -0.286 OA
ENDBRANCH  15  16
BRANCH  15  18
ATOM     18  CB  GLN A   2      34.329  13.105 -41.142  0.00  0.00    +0.037 C 
BRANCH  18  19
ATOM     19  CG  GLN A   2      34.096  12.239 -42.369  0.00  0.00    +0.087 C 
BRANCH  19  20
ATOM     20  CD  GLN A   2      32.640  12.156 -42.768  0.00  0.00    +0.219 C 
ATOM     21  OE1 GLN A   2      31.755  12.001 -41.917  0.00  0.00    -0.275 OA
ATOM     22  NE2 GLN A   2      32.378  12.236 -44.086  0.00  0.00    -0.329 N 
ATOM     23 HE21 GLN A   2      31.398  12.167 -44.426  0.00  0.00    +0.145 HD
ATOM     24 HE22 GLN A   2      33.156  12.367 -44.764  0.00  0.00    +0.145 HD
ENDBRANCH  19  20
ENDBRANCH  18  19
ENDBRANCH  15  18
ENDBRANCH   2  15
TORSDOF 10
REMARK  Name = ../refined-set-2016/4ca8/4ca8_pocket.pdb
REMARK  304 active torsions:
REMARK  status: ('A' for Active; 'I' for Inactive)
REMARK    1  A    between atoms: _1  and  _3
REMARK    2  A    between atoms: _3  and  _4
REMARK    3  A    between atoms: _3  and  _6
REMARK    4  A    between atoms: _6  and  _7
REMARK    5  A    between atoms: _7  and  _8
REMARK    6  A    between atoms: _11  and  _13
REMARK    7  A    between atoms: _13  and  _14
REMARK    8  A    between atoms: _13  and  _16
REMARK    9  A    between atoms: _16  and  _17
REMARK   10  A    between atoms: _17  and  _18
REMARK   11  A    between atoms: _21  and  _23
REMARK   12  A    between atoms: _23  and  _24
REMARK   13  A    between atoms: _23  and  _26
REMARK   14  A    between atoms: _26  and  _27
REMARK   15  A    between atoms: _32  and  _34
REMARK   16  A    between atoms: _34  and  _35
REMARK   17  A    between atoms: _34  and  _37
REMARK   18  A    between atoms: _37  and  _38
REMARK   19  A    between atoms: _48  and  _50
REMARK   20  A    between atoms: _50  and  _51
REMARK   21  A    between atoms: _50  and  _53
REMARK   22  A    between atoms: _53  and  _54
REMARK   23  A    between atoms: _54  and  _55
REMARK   24  A    between atoms: _60  and  _62
REMARK   25  A    between atoms: _62  and  _63
REMARK   26  A    between atoms: _62  and  _65
REMARK   27  A    between atoms: _65  and  _66
REMARK   28  A    between atoms: _66  and  _67
REMARK   29  A    between atoms: _72  and  _74
REMARK   30  A    between atoms: _74  and  _75
REMARK   31  A    between atoms: _74  and  _77
REMARK   32  A    between atoms: _77  and  _78
REMARK   33  A    between atoms: _80  and  _82
REMARK   34  A    between atoms: _82  and  _83
REMARK   35  A    between atoms: _82  and  _85
REMARK   36  A    between atoms: _85  and  _86
REMARK   37  A    between atoms: _86  and  _87
REMARK   38  A    between atoms: _90  and  _92
REMARK   39  A    between atoms: _92  and  _93
REMARK   40  A    between atoms: _92  and  _95
REMARK   41  A    between atoms: _98  and  _100
REMARK   42  A    between atoms: _100  and  _101
REMARK   43  A    between atoms: _100  and  _103
REMARK   44  A    between atoms: _105  and  _107
REMARK   45  A    between atoms: _107  and  _108
REMARK   46  A    between atoms: _107  and  _110
REMARK   47  A    between atoms: _110  and  _111
REMARK   48  A    between atoms: _116  and  _118
REMARK   49  A    between atoms: _118  and  _119
REMARK   50  A    between atoms: _122  and  _124
REMARK   51  A    between atoms: _124  and  _125
REMARK   52  A    between atoms: _124  and  _127
REMARK   53  A    between atoms: _127  and  _128
REMARK   54  A    between atoms: _130  and  _132
REMARK   55  A    between atoms: _132  and  _133
REMARK   56  A    between atoms: _136  and  _138
REMARK   57  A    between atoms: _138  and  _139
REMARK   58  A    between atoms: _138  and  _141
REMARK   59  A    between atoms: _141  and  _142
REMARK   60  A    between atoms: _152  and  _154
REMARK   61  A    between atoms: _154  and  _155
REMARK   62  A    between atoms: _154  and  _157
REMARK   63  A    between atoms: _157  and  _158
REMARK   64  A    between atoms: _161  and  _163
REMARK   65  A    between atoms: _163  and  _164
REMARK   66  A    between atoms: _163  and  _166
REMARK   67  A    between atoms: _166  and  _167
REMARK   68  A    between atoms: _172  and  _173
REMARK   69  A    between atoms: _175  and  _177
REMARK   70  A    between atoms: _177  and  _178
REMARK   71  A    between atoms: _177  and  _180
REMARK   72  A    between atoms: _180  and  _181
REMARK   73  A    between atoms: _181  and  _182
REMARK   74  A    between atoms: _182  and  _183
REMARK   75  A    between atoms: _192  and  _194
REMARK   76  A    between atoms: _194  and  _195
REMARK   77  A    between atoms: _194  and  _197
REMARK   78  A    between atoms: _197  and  _198
REMARK   79  A    between atoms: _201  and  _203
REMARK   80  A    between atoms: _203  and  _204
REMARK   81  A    between atoms: _203  and  _206
REMARK   82  A    between atoms: _206  and  _207
REMARK   83  A    between atoms: _207  and  _208
REMARK   84  A    between atoms: _208  and  _209
REMARK   85  A    between atoms: _209  and  _210
REMARK   86  A    between atoms: _214  and  _216
REMARK   87  A    between atoms: _216  and  _217
REMARK   88  A    between atoms: _216  and  _219
REMARK   89  A    between atoms: _219  and  _220
REMARK   90  A    between atoms: _220  and  _221
REMARK   91  A    between atoms: _226  and  _228
REMARK   92  A    between atoms: _228  and  _229
REMARK   93  A    between atoms: _228  and  _231
REMARK   94  A    between atoms: _231  and  _232
REMARK   95  A    between atoms: _232  and  _233
REMARK   96  A    between atoms: _233  and  _234
REMARK   97  A    between atoms: _243  and  _245
REMARK   98  A    between atoms: _245  and  _246
REMARK   99  A    between atoms: _245  and  _248
REMARK  100  A    between atoms: _248  and  _249
REMARK  101  A    between atoms: _252  and  _254
REMARK  102  A    between atoms: _254  and  _255
REMARK  103  A    between atoms: _254  and  _257
REMARK  104  A    between atoms: _257  and  _258
REMARK  105  A    between atoms: _258  and  _259
REMARK  106  A    between atoms: _264  and  _266
REMARK  107  A    between atoms: _266  and  _267
REMARK  108  A    between atoms: _266  and  _269
REMARK  109  A    between atoms: _269  and  _270
REMARK  110  A    between atoms: _273  and  _275
REMARK  111  A    between atoms: _275  and  _276
REMARK  112  A    between atoms: _275  and  _278
REMARK  113  A    between atoms: _278  and  _279
REMARK  114  A    between atoms: _279  and  _280
REMARK  115  A    between atoms: _285  and  _287
REMARK  116  A    between atoms: _287  and  _288
REMARK  117  A    between atoms: _287  and  _290
REMARK  118  A    between atoms: _290  and  _291
REMARK  119  A    between atoms: _294  and  _296
REMARK  120  A    between atoms: _296  and  _297
REMARK  121  A    between atoms: _296  and  _299
REMARK  122  A    between atoms: _299  and  _300
REMARK  123  A    between atoms: _306  and  _308
REMARK  124  A    between atoms: _308  and  _309
REMARK  125  A    between atoms: _308  and  _311
REMARK  126  A    between atoms: _311  and  _312
REMARK  127  A    between atoms: _315  and  _317
REMARK  128  A    between atoms: _317  and  _318
REMARK  129  A    between atoms: _317  and  _320
REMARK  130  A    between atoms: _323  and  _325
REMARK  131  A    between atoms: _325  and  _326
REMARK  132  A    between atoms: _325  and  _328
REMARK  133  A    between atoms: _328  and  _329
REMARK  134  A    between atoms: _334  and  _336
REMARK  135  A    between atoms: _347  and  _350
REMARK  136  A    between atoms: _350  and  _351
REMARK  137  A    between atoms: _351  and  _352
REMARK  138  A    between atoms: _357  and  _360
REMARK  139  A    between atoms: _360  and  _361
REMARK  140  A    between atoms: _371  and  _372
REMARK  141  A    between atoms: _380  and  _382
REMARK  142  A    between atoms: _382  and  _383
REMARK  143  A    between atoms: _382  and  _385
REMARK  144  A    between atoms: _385  and  _386
REMARK  145  A    between atoms: _389  and  _391
REMARK  146  A    between atoms: _391  and  _392
REMARK  147  A    between atoms: _391  and  _394
REMARK  148  A    between atoms: _394  and  _395
REMARK  149  A    between atoms: _400  and  _401
REMARK  150  A    between atoms: _403  and  _405
REMARK  151  A    between atoms: _405  and  _406
REMARK  152  A    between atoms: _405  and  _408
REMARK  153  A    between atoms: _408  and  _409
REMARK  154  A    between atoms: _415  and  _417
REMARK  155  A    between atoms: _417  and  _418
REMARK  156  A    between atoms: _417  and  _420
REMARK  157  A    between atoms: _420  and  _421
REMARK  158  A    between atoms: _426  and  _427
REMARK  159  A    between atoms: _429  and  _431
REMARK  160  A    between atoms: _431  and  _432
REMARK  161  A    between atoms: _431  and  _434
REMARK  162  A    between atoms: _434  and  _435
REMARK  163  A    between atoms: _435  and  _436
REMARK  164  A    between atoms: _436  and  _437
REMARK  165  A    between atoms: _446  and  _448
REMARK  166  A    between atoms: _448  and  _449
REMARK  167  A    between atoms: _448  and  _451
REMARK  168  A    between atoms: _451  and  _452
REMARK  169  A    between atoms: _455  and  _457
REMARK  170  A    between atoms: _457  and  _458
REMARK  171  A    between atoms: _460  and  _462
REMARK  172  A    between atoms: _462  and  _463
REMARK  173  A    between atoms: _462  and  _465
REMARK  174  A    between atoms: _465  and  _466
REMARK  175  A    between atoms: _472  and  _473
REMARK  176  A    between atoms: _478  and  _480
REMARK  177  A    between atoms: _480  and  _481
REMARK  178  A    between atoms: _483  and  _485
REMARK  179  A    between atoms: _485  and  _486
REMARK  180  A    between atoms: _485  and  _488
REMARK  181  A    between atoms: _488  and  _489
REMARK  182  A    between atoms: _495  and  _497
REMARK  183  A    between atoms: _497  and  _498
REMARK  184  A    between atoms: _497  and  _500
REMARK  185  A    between atoms: _500  and  _501
REMARK  186  A    between atoms: _506  and  _508
REMARK  187  A    between atoms: _508  and  _509
REMARK  188  A    between atoms: _508  and  _511
REMARK  189  A    between atoms: _511  and  _512
REMARK  190  A    between atoms: _512  and  _513
REMARK  191  A    between atoms: _513  and  _514
REMARK  192  A    between atoms: _514  and  ZN_788
REMARK  193  A    between atoms: _516  and  _518
REMARK  194  A    between atoms: _518  and  _519
REMARK  195  A    between atoms: _522  and  _524
REMARK  196  A    between atoms: _524  and  _525
REMARK  197  A    between atoms: _527  and  _529
REMARK  198  A    between atoms: _529  and  _530
REMARK  199  A    between atoms: _529  and  _532
REMARK  200  A    between atoms: _532  and  _533
REMARK  201  A    between atoms: _536  and  _538
REMARK  202  A    between atoms: _538  and  _539
REMARK  203  A    between atoms: _538  and  _541
REMARK  204  A    between atoms: _544  and  _546
REMARK  205  A    between atoms: _546  and  _547
REMARK  206  A    between atoms: _546  and  _549
REMARK  207  A    between atoms: _549  and  _550
REMARK  208  A    between atoms: _552  and  _554
REMARK  209  A    between atoms: _554  and  _555
REMARK  210  A    between atoms: _554  and  _557
REMARK  211  A    between atoms: _557  and  _558
REMARK  212  A    between atoms: _561  and  _563
REMARK  213  A    between atoms: _563  and  _564
REMARK  214  A    between atoms: _563  and  _566
REMARK  215  A    between atoms: _566  and  _567
REMARK  216  A    between atoms: _570  and  _572
REMARK  217  A    between atoms: _572  and  _573
REMARK  218  A    between atoms: _572  and  _575
REMARK  219  A    between atoms: _575  and  _576
REMARK  220  A    between atoms: _576  and  _577
REMARK  221  A    between atoms: _577  and  _578
REMARK  222  A    between atoms: _578  and  _579
REMARK  223  A    between atoms: _583  and  _585
REMARK  224  A    between atoms: _585  and  _586
REMARK  225  A    between atoms: _585  and  _588
REMARK  226  A    between atoms: _588  and  _589
REMARK  227  A    between atoms: _595  and  _597
REMARK  228  A    between atoms: _597  and  _598
REMARK  229  A    between atoms: _597  and  _600
REMARK  230  A    between atoms: _600  and  _601
REMARK  231  A    between atoms: _607  and  _609
REMARK  232  A    between atoms: _609  and  _610
REMARK  233  A    between atoms: _613  and  _615
REMARK  234  A    between atoms: _615  and  _616
REMARK  235  A    between atoms: _615  and  _618
REMARK  236  A    between atoms: _618  and  _619
REMARK  237  A    between atoms: _619  and  _620
REMARK  238  A    between atoms: _622  and  _624
REMARK  239  A    between atoms: _624  and  _625
REMARK  240  A    between atoms: _624  and  _627
REMARK  241  A    between atoms: _627  and  _628
REMARK  242  A    between atoms: _628  and  _629
REMARK  243  A    between atoms: _629  and  _630
REMARK  244  A    between atoms: _630  and  _631
REMARK  245  A    between atoms: _635  and  _637
REMARK  246  A    between atoms: _637  and  _638
REMARK  247  A    between atoms: _637  and  _640
REMARK  248  A    between atoms: _640  and  _641
REMARK  249  A    between atoms: _646  and  _647
REMARK  250  A    between atoms: _649  and  _651
REMARK  251  A    between atoms: _651  and  _652
REMARK  252  A    between atoms: _651  and  _654
REMARK  253  A    between atoms: _654  and  _655
REMARK  254  A    between atoms: _660  and  _662
REMARK  255  A    between atoms: _662  and  _663
REMARK  256  A    between atoms: _662  and  _665
REMARK  257  A    between atoms: _665  and  _666
REMARK  258  A    between atoms: _669  and  _671
REMARK  259  A    between atoms: _671  and  _672
REMARK  260  A    between atoms: _675  and  _677
REMARK  261  A    between atoms: _677  and  _678
REMARK  262  A    between atoms: _677  and  _680
REMARK  263  A    between atoms: _680  and  _681
REMARK  264  A    between atoms: _684  and  _686
REMARK  265  A    between atoms: _686  and  _687
REMARK  266  A    between atoms: _686  and  _689
REMARK  267  A    between atoms: _692  and  _694
REMARK  268  A    between atoms: _694  and  _695
REMARK  269  A    between atoms: _694  and  _697
REMARK  270  A    between atoms: _697  and  _698
REMARK  271  A    between atoms: _698  and  _699
REMARK  272  A    between atoms: _702  and  _704
REMARK  273  A    between atoms: _704  and  _705
REMARK  274  A    between atoms: _704  and  _707
REMARK  275  A    between atoms: _707  and  _708
REMARK  276  A    between atoms: _713  and  _714
REMARK  277  A    between atoms: _716  and  _718
REMARK  278  A    between atoms: _718  and  _719
REMARK  279  A    between atoms: _718  and  _721
REMARK  280  A    between atoms: _721  and  _722
REMARK  281  A    between atoms: _722  and  _723
REMARK  282  A    between atoms: _723  and  _724
REMARK  283  A    between atoms: _733  and  _735
REMARK  284  A    between atoms: _735  and  _736
REMARK  285  A    between atoms: _735  and  _738
REMARK  286  A    between atoms: _738  and  _739
REMARK  287  A    between atoms: _744  and  _745
REMARK  288  A    between atoms: _747  and  _749
REMARK  289  A    between atoms: _749  and  _750
REMARK  290  A    between atoms: _749  and  _752
REMARK  291  A    between atoms: _752  and  _753
REMARK  292  A    between atoms: _756  and  _758
REMARK  293  A    between atoms: _758  and  _759
REMARK  294  A    between atoms: _758  and  _761
REMARK  295  A    between atoms: _761  and  _762
REMARK  296  A    between atoms: _764  and  _766
REMARK  297  A    between atoms: _766  and  _767
REMARK  298  A    between atoms: _766  and  _769
REMARK  299  A    between atoms: _769  and  _770
REMARK  300  A    between atoms: _776  and  _778
REMARK  301  A    between atoms: _778  and  _779
REMARK  302  A    between atoms: _778  and  _781
REMARK  303  A    between atoms: _781  and  _782
REMARK  304  A    between atoms: _782  and  _783
REMARK                            x       y       z     vdW  Elec       q    Type
REMARK                         _______ _______ _______ _____ _____    ______ ____
ROOT
ATOM      1  C   SER A   1      32.697  19.082 -38.388  0.00  0.00    +0.241 C 
ATOM      2  N   GLU A   2      32.833  18.218 -37.390  0.00  0.00    -0.298 N 
ATOM      3  H   GLU A   2      33.260  17.287 -37.567  0.00  0.00    +0.150 HD
ATOM      4  O   SER A   1      32.202  20.186 -38.225  0.00  0.00    -0.274 OA
ENDROOT
BRANCH   1   5
ATOM      5  CA  SER A   1      33.218  18.686 -39.770  0.00  0.00    +0.174 C 
BRANCH   5   6
ATOM      6  N   SER A   1      34.233  17.629 -39.727  0.00  0.00    -0.236 NA
ATOM      7  H   SER A   1      34.033  16.696 -40.142  0.00  0.00    +0.142 HD
ENDBRANCH   5   6
BRANCH   5   8
ATOM      8  CB  SER A   1      32.052  18.304 -40.682  0.00  0.00    +0.163 C 
BRANCH   8   9
ATOM      9  OG  SER A   1      31.507  17.074 -40.285  0.00  0.00    -0.380 OA
ATOM     10  H   SER A   1      32.204  16.373 -40.339  0.00  0.00    +0.211 HD
ENDBRANCH   8   9
ENDBRANCH   5   8
ENDBRANCH   1   5
BRANCH   2  11
ATOM     11  CA  GLU A   2      32.384  18.569 -36.039  0.00  0.00    +0.137 C 
BRANCH  11  12
ATOM     12  C   GLU A   2      33.178  19.692 -35.372  0.00  0.00    +0.227 C 
ATOM     13  O   GLU A   2      32.701  20.277 -34.425  0.00  0.00    -0.286 OA
ENDBRANCH  11  12
BRANCH  11  14
ATOM     14  CB  GLU A   2      32.354  17.339 -35.128  0.00  0.00    +0.039 C 
BRANCH  14  15
ATOM     15  CG  GLU A   2      31.358  16.270 -35.566  0.00  0.00    +0.116 C 
BRANCH  15  16
ATOM     16  CD  GLU A   2      29.907  16.621 -35.247  0.00  0.00    +0.365 C 
ATOM     17  OE2 GLU A   2      29.600  17.777 -34.910  0.00  0.00    -0.246 OA
ATOM     18  OE1 GLU A   2      29.052  15.724 -35.336  0.00  0.00    -0.246 OA
ENDBRANCH  15  16
ENDBRANCH  14  15
ENDBRANCH  11  14
ENDBRANCH   2  11
TORSDOF 9
REMARK  Name = ../refined-set-2016/4ca8/4ca8_pocket.pdb
REMARK  304 active torsions:
REMARK  status: ('A' for Active; 'I' for Inactive)
REMARK    1  A    between atoms: _1  and  _3
REMARK    2  A    between atoms: _3  and  _4
REMARK    3  A    between atoms: _3  and  _6
REMARK    4  A    between atoms: _6  and  _7
REMARK    5  A    between atoms: _7  and  _8
REMARK    6  A    between atoms: _11  and  _13
REMARK    7  A    between atoms: _13  and  _14
REMARK    8  A    between atoms: _13  and  _16
REMARK    9  A    between atoms: _16  and  _17
REMARK   10  A    between atoms: _17  and  _18
REMARK   11  A    between atoms: _21  and  _23
REMARK   12  A    between atoms: _23  and  _24
REMARK   13  A    between atoms: _23  and  _26
REMARK   14  A    between atoms: _26  and  _27
REMARK   15  A    between atoms: _32  and  _34
REMARK   16  A    between atoms: _34  and  _35
REMARK   17  A    between atoms: _34  and  _37
REMARK   18  A    between atoms: _37  and  _38
REMARK   19  A    between atoms: _48  and  _50
REMARK   20  A    between atoms: _50  and  _51
REMARK   21  A    between atoms: _50  and  _53
REMARK   22  A    between atoms: _53  and  _54
REMARK   23  A    between atoms: _54  and  _55
REMARK   24  A    between atoms: _60  and  _62
REMARK   25  A    between atoms: _62  and  _63
REMARK   26  A    between atoms: _62  and  _65
REMARK   27  A    between atoms: _65  and  _66
REMARK   28  A    between atoms: _66  and  _67
REMARK   29  A    between atoms: _72  and  _74
REMARK   30  A    between atoms: _74  and  _75
REMARK   31  A    between atoms: _74  and  _77
REMARK   32  A    between atoms: _77  and  _78
REMARK   33  A    between atoms: _80  and  _82
REMARK   34  A    between atoms: _82  and  _83
REMARK   35  A    between atoms: _82  and  _85
REMARK   36  A    between atoms: _85  and  _86
REMARK   37  A    between atoms: _86  and  _87
REMARK   38  A    between atoms: _90  and  _92
REMARK   39  A    between atoms: _92  and  _93
REMARK   40  A    between atoms: _92  and  _95
REMARK   41  A    between atoms: _98  and  _100
REMARK   42  A    between atoms: _100  and  _101
REMARK   43  A    between atoms: _100  and  _103
REMARK   44  A    between atoms: _105  and  _107
REMARK   45  A    between atoms: _107  and  _108
REMARK   46  A    between atoms: _107  and  _110
REMARK   47  A    between atoms: _110  and  _111
REMARK   48  A    between atoms: _116  and  _118
REMARK   49  A    between atoms: _118  and  _119
REMARK   50  A    between atoms: _122  and  _124
REMARK   51  A    between atoms: _124  and  _125
REMARK   52  A    between atoms: _124  and  _127
REMARK   53  A    between atoms: _127  and  _128
REMARK   54  A    between atoms: _130  and  _132
REMARK   55  A    between atoms: _132  and  _133
REMARK   56  A    between atoms: _136  and  _138
REMARK   57  A    between atoms: _138  and  _139
REMARK   58  A    between atoms: _138  and  _141
REMARK   59  A    between atoms: _141  and  _142
REMARK   60  A    between atoms: _152  and  _154
REMARK   61  A    between atoms: _154  and  _155
REMARK   62  A    between atoms: _154  and  _157
REMARK   63  A    between atoms: _157  and  _158
REMARK   64  A    between atoms: _161  and  _163
REMARK   65  A    between atoms: _163  and  _164
REMARK   66  A    between atoms: _163  and  _166
REMARK   67  A    between atoms: _166  and  _167
REMARK   68  A    between atoms: _172  and  _173
REMARK   69  A    between atoms: _175  and  _177
REMARK   70  A    between atoms: _177  and  _178
REMARK   71  A    between atoms: _177  and  _180
REMARK   72  A    between atoms: _180  and  _181
REMARK   73  A    between atoms: _181  and  _182
REMARK   74  A    between atoms: _182  and  _183
REMARK   75  A    between atoms: _192  and  _194
REMARK   76  A    between atoms: _194  and  _195
REMARK   77  A    between atoms: _194  and  _197
REMARK   78  A    between atoms: _197  and  _198
REMARK   79  A    between atoms: _201  and  _203
REMARK   80  A    between atoms: _203  and  _204
REMARK   81  A    between atoms: _203  and  _206
REMARK   82  A    between atoms: _206  and  _207
REMARK   83  A    between atoms: _207  and  _208
REMARK   84  A    between atoms: _208  and  _209
REMARK   85  A    between atoms: _209  and  _210
REMARK   86  A    between atoms: _214  and  _216
REMARK   87  A    between atoms: _216  and  _217
REMARK   88  A    between atoms: _216  and  _219
REMARK   89  A    between atoms: _219  and  _220
REMARK   90  A    between atoms: _220  and  _221
REMARK   91  A    between atoms: _226  and  _228
REMARK   92  A    between atoms: _228  and  _229
REMARK   93  A    between atoms: _228  and  _231
REMARK   94  A    between atoms: _231  and  _232
REMARK   95  A    between atoms: _232  and  _233
REMARK   96  A    between atoms: _233  and  _234
REMARK   97  A    between atoms: _243  and  _245
REMARK   98  A    between atoms: _245  and  _246
REMARK   99  A    between atoms: _245  and  _248
REMARK  100  A    between atoms: _248  and  _249
REMARK  101  A    between atoms: _252  and  _254
REMARK  102  A    between atoms: _254  and  _255
REMARK  103  A    between atoms: _254  and  _257
REMARK  104  A    between atoms: _257  and  _258
REMARK  105  A    between atoms: _258  and  _259
REMARK  106  A    between atoms: _264  and  _266
REMARK  107  A    between atoms: _266  and  _267
REMARK  108  A    between atoms: _266  and  _269
REMARK  109  A    between atoms: _269  and  _270
REMARK  110  A    between atoms: _273  and  _275
REMARK  111  A    between atoms: _275  and  _276
REMARK  112  A    between atoms: _275  and  _278
REMARK  113  A    between atoms: _278  and  _279
REMARK  114  A    between atoms: _279  and  _280
REMARK  115  A    between atoms: _285  and  _287
REMARK  116  A    between atoms: _287  and  _288
REMARK  117  A    between atoms: _287  and  _290
REMARK  118  A    between atoms: _290  and  _291
REMARK  119  A    between atoms: _294  and  _296
REMARK  120  A    between atoms: _296  and  _297
REMARK  121  A    between atoms: _296  and  _299
REMARK  122  A    between atoms: _299  and  _300
REMARK  123  A    between atoms: _306  and  _308
REMARK  124  A    between atoms: _308  and  _309
REMARK  125  A    between atoms: _308  and  _311
REMARK  126  A    between atoms: _311  and  _312
REMARK  127  A    between atoms: _315  and  _317
REMARK  128  A    between atoms: _317  and  _318
REMARK  129  A    between atoms: _317  and  _320
REMARK  130  A    between atoms: _323  and  _325
REMARK  131  A    between atoms: _325  and  _326
REMARK  132  A    between atoms: _325  and  _328
REMARK  133  A    between atoms: _328  and  _329
REMARK  134  A    between atoms: _334  and  _336
REMARK  135  A    between atoms: _347  and  _350
REMARK  136  A    between atoms: _350  and  _351
REMARK  137  A    between atoms: _351  and  _352
REMARK  138  A    between atoms: _357  and  _360
REMARK  139  A    between atoms: _360  and  _361
REMARK  140  A    between atoms: _371  and  _372
REMARK  141  A    between atoms: _380  and  _382
REMARK  142  A    between atoms: _382  and  _383
REMARK  143  A    between atoms: _382  and  _385
REMARK  144  A    between atoms: _385  and  _386
REMARK  145  A    between atoms: _389  and  _391
REMARK  146  A    between atoms: _391  and  _392
REMARK  147  A    between atoms: _391  and  _394
REMARK  148  A    between atoms: _394  and  _395
REMARK  149  A    between atoms: _400  and  _401
REMARK  150  A    between atoms: _403  and  _405
REMARK  151  A    between atoms: _405  and  _406
REMARK  152  A    between atoms: _405  and  _408
REMARK  153  A    between atoms: _408  and  _409
REMARK  154  A    between atoms: _415  and  _417
REMARK  155  A    between atoms: _417  and  _418
REMARK  156  A    between atoms: _417  and  _420
REMARK  157  A    between atoms: _420  and  _421
REMARK  158  A    between atoms: _426  and  _427
REMARK  159  A    between atoms: _429  and  _431
REMARK  160  A    between atoms: _431  and  _432
REMARK  161  A    between atoms: _431  and  _434
REMARK  162  A    between atoms: _434  and  _435
REMARK  163  A    between atoms: _435  and  _436
REMARK  164  A    between atoms: _436  and  _437
REMARK  165  A    between atoms: _446  and  _448
REMARK  166  A    between atoms: _448  and  _449
REMARK  167  A    between atoms: _448  and  _451
REMARK  168  A    between atoms: _451  and  _452
REMARK  169  A    between atoms: _455  and  _457
REMARK  170  A    between atoms: _457  and  _458
REMARK  171  A    between atoms: _460  and  _462
REMARK  172  A    between atoms: _462  and  _463
REMARK  173  A    between atoms: _462  and  _465
REMARK  174  A    between atoms: _465  and  _466
REMARK  175  A    between atoms: _472  and  _473
REMARK  176  A    between atoms: _478  and  _480
REMARK  177  A    between atoms: _480  and  _481
REMARK  178  A    between atoms: _483  and  _485
REMARK  179  A    between atoms: _485  and  _486
REMARK  180  A    between atoms: _485  and  _488
REMARK  181  A    between atoms: _488  and  _489
REMARK  182  A    between atoms: _495  and  _497
REMARK  183  A    between atoms: _497  and  _498
REMARK  184  A    between atoms: _497  and  _500
REMARK  185  A    between atoms: _500  and  _501
REMARK  186  A    between atoms: _506  and  _508
REMARK  187  A    between atoms: _508  and  _509
REMARK  188  A    between atoms: _508  and  _511
REMARK  189  A    between atoms: _511  and  _512
REMARK  190  A    between atoms: _512  and  _513
REMARK  191  A    between atoms: _513  and  _514
REMARK  192  A    between atoms: _514  and  ZN_788
REMARK  193  A    between atoms: _516  and  _518
REMARK  194  A    between atoms: _518  and  _519
REMARK  195  A    between atoms: _522  and  _524
REMARK  196  A    between atoms: _524  and  _525
REMARK  197  A    between atoms: _527  and  _529
REMARK  198  A    between atoms: _529  and  _530
REMARK  199  A    between atoms: _529  and  _532
REMARK  200  A    between atoms: _532  and  _533
REMARK  201  A    between atoms: _536  and  _538
REMARK  202  A    between atoms: _538  and  _539
REMARK  203  A    between atoms: _538  and  _541
REMARK  204  A    between atoms: _544  and  _546
REMARK  205  A    between atoms: _546  and  _547
REMARK  206  A    between atoms: _546  and  _549
REMARK  207  A    between atoms: _549  and  _550
REMARK  208  A    between atoms: _552  and  _554
REMARK  209  A    between atoms: _554  and  _555
REMARK  210  A    between atoms: _554  and  _557
REMARK  211  A    between atoms: _557  and  _558
REMARK  212  A    between atoms: _561  and  _563
REMARK  213  A    between atoms: _563  and  _564
REMARK  214  A    between atoms: _563  and  _566
REMARK  215  A    between atoms: _566  and  _567
REMARK  216  A    between atoms: _570  and  _572
REMARK  217  A    between atoms: _572  and  _573
REMARK  218  A    between atoms: _572  and  _575
REMARK  219  A    between atoms: _575  and  _576
REMARK  220  A    between atoms: _576  and  _577
REMARK  221  A    between atoms: _577  and  _578
REMARK  222  A    between atoms: _578  and  _579
REMARK  223  A    between atoms: _583  and  _585
REMARK  224  A    between atoms: _585  and  _586
REMARK  225  A    between atoms: _585  and  _588
REMARK  226  A    between atoms: _588  and  _589
REMARK  227  A    between atoms: _595  and  _597
REMARK  228  A    between atoms: _597  and  _598
REMARK  229  A    between atoms: _597  and  _600
REMARK  230  A    between atoms: _600  and  _601
REMARK  231  A    between atoms: _607  and  _609
REMARK  232  A    between atoms: _609  and  _610
REMARK  233  A    between atoms: _613  and  _615
REMARK  234  A    between atoms: _615  and  _616
REMARK  235  A    between atoms: _615  and  _618
REMARK  236  A    between atoms: _618  and  _619
REMARK  237  A    between atoms: _619  and  _620
REMARK  238  A    between atoms: _622  and  _624
REMARK  239  A    between atoms: _624  and  _625
REMARK  240  A    between atoms: _624  and  _627
REMARK  241  A    between atoms: _627  and  _628
REMARK  242  A    between atoms: _628  and  _629
REMARK  243  A    between atoms: _629  and  _630
REMARK  244  A    between atoms: _630  and  _631
REMARK  245  A    between atoms: _635  and  _637
REMARK  246  A    between atoms: _637  and  _638
REMARK  247  A    between atoms: _637  and  _640
REMARK  248  A    between atoms: _640  and  _641
REMARK  249  A    between atoms: _646  and  _647
REMARK  250  A    between atoms: _649  and  _651
REMARK  251  A    between atoms: _651  and  _652
REMARK  252  A    between atoms: _651  and  _654
REMARK  253  A    between atoms: _654  and  _655
REMARK  254  A    between atoms: _660  and  _662
REMARK  255  A    between atoms: _662  and  _663
REMARK  256  A    between atoms: _662  and  _665
REMARK  257  A    between atoms: _665  and  _666
REMARK  258  A    between atoms: _669  and  _671
REMARK  259  A    between atoms: _671  and  _672
REMARK  260  A    between atoms: _675  and  _677
REMARK  261  A    between atoms: _677  and  _678
REMARK  262  A    between atoms: _677  and  _680
REMARK  263  A    between atoms: _680  and  _681
REMARK  264  A    between atoms: _684  and  _686
REMARK  265  A    between atoms: _686  and  _687
REMARK  266  A    between atoms: _686  and  _689
REMARK  267  A    between atoms: _692  and  _694
REMARK  268  A    between atoms: _694  and  _695
REMARK  269  A    between atoms: _694  and  _697
REMARK  270  A    between atoms: _697  and  _698
REMARK  271  A    between atoms: _698  and  _699
REMARK  272  A    between atoms: _702  and  _704
REMARK  273  A    between atoms: _704  and  _705
REMARK  274  A    between atoms: _704  and  _707
REMARK  275  A    between atoms: _707  and  _708
REMARK  276  A    between atoms: _713  and  _714
REMARK  277  A    between atoms: _716  and  _718
REMARK  278  A    between atoms: _718  and  _719
REMARK  279  A    between atoms: _718  and  _721
REMARK  280  A    between atoms: _721  and  _722
REMARK  281  A    between atoms: _722  and  _723
REMARK  282  A    between atoms: _723  and  _724
REMARK  283  A    between atoms: _733  and  _735
REMARK  284  A    between atoms: _735  and  _736
REMARK  285  A    between atoms: _735  and  _738
REMARK  286  A    between atoms: _738  and  _739
REMARK  287  A    between atoms: _744  and  _745
REMARK  288  A    between atoms: _747  and  _749
REMARK  289  A    between atoms: _749  and  _750
REMARK  290  A    between atoms: _749  and  _752
REMARK  291  A    between atoms: _752  and  _753
REMARK  292  A    between atoms: _756  and  _758
REMARK  293  A    between atoms: _758  and  _759
REMARK  294  A    between atoms: _758  and  _761
REMARK  295  A    between atoms: _761  and  _762
REMARK  296  A    between atoms: _764  and  _766
REMARK  297  A    between atoms: _766  and  _767
REMARK  298  A    between atoms: _766  and  _769
REMARK  299  A    between atoms: _769  and  _770
REMARK  300  A    between atoms: _776  and  _778
REMARK  301  A    between atoms: _778  and  _779
REMARK  302  A    between atoms: _778  and  _781
REMARK  303  A    between atoms: _781  and  _782
REMARK  304  A    between atoms: _782  and  _783
REMARK                            x       y       z     vdW  Elec       q    Type
REMARK                         _______ _______ _______ _____ _____    ______ ____
ROOT
ATOM      1  CA  SER A   5      22.767  -0.603 -41.260  0.00  0.00    +0.178 C 
ENDROOT
BRANCH   1   2
ATOM      2  C   SER A   5      21.427  -0.697 -41.954  0.00  0.00    +0.243 C 
ATOM      3  O   SER A   5      20.382  -0.408 -41.357  0.00  0.00    -0.273 OA
ATOM      4  N   ALA A   6      21.492  -1.100 -43.223  0.00  0.00    -0.297 N 
ATOM      5  H   ALA A   6      22.435  -1.278 -43.625  0.00  0.00    +0.150 HD
BRANCH   4   6
ATOM      6  CA  ALA A   6      20.341  -1.309 -44.086  0.00  0.00    +0.149 C 
ATOM      7  CB  ALA A   6      20.426  -0.384 -45.289  0.00  0.00    +0.031 C 
BRANCH   6   8
ATOM      8  C   ALA A   6      20.308  -2.772 -44.547  0.00  0.00    +0.241 C 
ATOM      9  N   TRP A   7      19.120  -3.372 -44.516  0.00  0.00    -0.297 N 
ATOM     10  H   TRP A   7      18.268  -2.786 -44.406  0.00  0.00    +0.150 HD
ATOM     11  O   ALA A   6      21.334  -3.325 -44.957  0.00  0.00    -0.273 OA
BRANCH   9  12
ATOM     12  CA  TRP A   7      18.965  -4.808 -44.629  0.00  0.00    +0.153 C 
BRANCH  12  13
ATOM     13  C   TRP A   7      18.007  -5.175 -45.746  0.00  0.00    +0.241 C 
ATOM     14  O   TRP A   7      16.935  -4.584 -45.884  0.00  0.00    -0.273 OA
ATOM     15  N   ASP A   8      18.416  -6.150 -46.543  0.00  0.00    -0.298 N 
ATOM     16  H   ASP A   8      19.367  -6.544 -46.395  0.00  0.00    +0.150 HD
BRANCH  15  17
ATOM     17  CA  ASP A   8      17.597  -6.698 -47.618  0.00  0.00    +0.148 C 
BRANCH  17  18
ATOM     18  C   ASP A   8      17.297  -8.142 -47.253  0.00  0.00    +0.227 C 
ATOM     19  O   ASP A   8      18.218  -8.914 -47.020  0.00  0.00    -0.286 OA
ENDBRANCH  17  18
BRANCH  17  20
ATOM     20  CB  ASP A   8      18.384  -6.652 -48.913  0.00  0.00    +0.142 C 
BRANCH  20  21
ATOM     21  CG  ASP A   8      17.547  -6.980 -50.115  0.00  0.00    +0.367 C 
ATOM     22  OD2 ASP A   8      16.375  -7.382 -49.936  0.00  0.00    -0.246 OA
ATOM     23  OD1 ASP A   8      18.066  -6.832 -51.239  0.00  0.00    -0.246 OA
ENDBRANCH  20  21
ENDBRANCH  17  20
ENDBRANCH  15  17
ENDBRANCH  12  13
BRANCH  12  24
ATOM     24  CB  TRP A   7      18.423  -5.367 -43.325  0.00  0.00    +0.057 C 
BRANCH  24  25
ATOM     25  CG  TRP A   7      19.332  -5.182 -42.164  0.00  0.00    -0.002 A 
ATOM     26  CD2 TRP A   7      20.069  -6.203 -41.494  0.00  0.00    +0.013 A 
ATOM     27  CE2 TRP A   7      20.782  -5.581 -40.451  0.00  0.00    +0.056 A 
ATOM     28  CZ2 TRP A   7      21.615  -6.293 -39.584  0.00  0.00    +0.017 A 
ATOM     29  CH2 TRP A   7      21.721  -7.644 -39.776  0.00  0.00    +0.001 A 
ATOM     30  CZ3 TRP A   7      21.015  -8.294 -40.814  0.00  0.00    +0.000 A 
ATOM     31  NE1 TRP A   7      20.479  -4.249 -40.487  0.00  0.00    -0.352 N 
ATOM     32  HE1 TRP A   7      20.852  -3.527 -39.838  0.00  0.00    +0.166 HD
ATOM     33  CE3 TRP A   7      20.192  -7.585 -41.672  0.00  0.00    +0.001 A 
ATOM     34  CD1 TRP A   7      19.607  -4.020 -41.513  0.00  0.00    +0.068 A 
ENDBRANCH  24  25
ENDBRANCH  12  24
ENDBRANCH   9  12
ENDBRANCH   6   8
ENDBRANCH   4   6
ENDBRANCH   1   2
BRANCH   1  37
ATOM     35  C   ALA A   4      23.858   0.955 -39.735  0.00  0.00    +0.241 C 
ATOM     36  O   ALA A   4      24.970   0.704 -40.174  0.00  0.00    -0.273 OA
ATOM     37  N   SER A   5      22.747   0.377 -40.186  0.00  0.00    -0.295 N 
ATOM     38  H   SER A   5      21.836   0.635 -39.756  0.00  0.00    +0.150 HD
BRANCH  35  39
ATOM     39  CA  ALA A   4      23.691   1.967 -38.608  0.00  0.00    +0.149 C 
ATOM     40  CB  ALA A   4      23.477   3.348 -39.188  0.00  0.00    +0.031 C 
BRANCH  39  43
ATOM     41  C   HIS A   3      25.185   0.916 -36.988  0.00  0.00    +0.241 C 
ATOM     42  O   HIS A   3      24.688  -0.184 -37.147  0.00  0.00    -0.273 OA
ATOM     43  N   ALA A   4      24.831   1.979 -37.698  0.00  0.00    -0.297 N 
ATOM     44  H   ALA A   4      25.387   2.853 -37.602  0.00  0.00    +0.150 HD
BRANCH  41  45
ATOM     45  CA  HIS A   3      26.247   1.131 -35.912  0.00  0.00    +0.155 C 
BRANCH  45  47
ATOM     46  C   CYS A   2      24.560   1.107 -34.191  0.00  0.00    +0.242 C 
ATOM     47  N   HIS A   3      25.717   0.630 -34.644  0.00  0.00    -0.297 N 
ATOM     48  H   HIS A   3      26.238  -0.090 -34.103  0.00  0.00    +0.150 HD
ATOM     49  O   CYS A   2      23.929   1.979 -34.788  0.00  0.00    -0.273 OA
BRANCH  46  50
ATOM     50  CA  CYS A   2      23.992   0.548 -32.893  0.00  0.00    +0.160 C 
BRANCH  50  52
ATOM     51  C   VAL A   1      24.120  -1.880 -33.000  0.00  0.00    +0.238 C 
ATOM     52  N   CYS A   2      24.580  -0.732 -32.509  0.00  0.00    -0.297 N 
ATOM     53  H   CYS A   2      25.375  -0.747 -31.838  0.00  0.00    +0.150 HD
ATOM     54  O   VAL A   1      23.147  -1.954 -33.771  0.00  0.00    -0.274 OA
BRANCH  51  55
ATOM     55  CA  VAL A   1      24.845  -3.141 -32.559  0.00  0.00    +0.145 C 
BRANCH  55  56
ATOM     56  CB  VAL A   1      25.215  -3.969 -33.820  0.00  0.00    +0.025 C 
ATOM     57  CG2 VAL A   1      25.967  -5.231 -33.436  0.00  0.00    +0.002 C 
ATOM     58  CG1 VAL A   1      26.039  -3.134 -34.792  0.00  0.00    +0.002 C 
ENDBRANCH  55  56
BRANCH  55  59
ATOM     59  N   VAL A   1      23.943  -3.866 -31.682  0.00  0.00    -0.238 NA
ATOM     60  H   VAL A   1      23.341  -4.609 -32.091  0.00  0.00    +0.142 HD
ENDBRANCH  55  59
ENDBRANCH  51  55
ENDBRANCH  50  52
BRANCH  50  61
ATOM     61  CB  CYS A   2      24.118   1.598 -31.779  0.00  0.00    +0.098 C 
ATOM     62  SG  CYS A   2      22.653   1.729 -30.708  0.00  0.00    -0.080 S 
ENDBRANCH  50  61
ENDBRANCH  46  50
ENDBRANCH  45  47
BRANCH  45  63
ATOM     63  CB  HIS A   3      27.571   0.464 -36.320  0.00  0.00    +0.076 C 
BRANCH  63  64
ATOM     64  CG  HIS A   3      28.261   1.174 -37.446  0.00  0.00    +0.082 A 
ATOM     65  ND1 HIS A   3      29.273   2.083 -37.242  0.00  0.00    -0.227 NA
ATOM     66  CE1 HIS A   3      29.656   2.585 -38.402  0.00  0.00    +0.199 A 
ATOM     67  NE2 HIS A   3      28.916   2.045 -39.354  0.00  0.00    -0.221 NA
ATOM     68  CD2 HIS A   3      28.035   1.159 -38.784  0.00  0.00    +0.115 A 
ENDBRANCH  63  64
ENDBRANCH  45  63
ENDBRANCH  41  45
ENDBRANCH  39  43
ENDBRANCH  35  39
ENDBRANCH   1  37
BRANCH   1  69
ATOM     69  CB  SER A   5      23.164  -1.987 -40.738  0.00  0.00    +0.166 C 
BRANCH  69  70
ATOM     70  OG  SER A   5      22.389  -2.347 -39.609  0.00  0.00    -0.380 OA
ATOM     71  H   SER A   5      22.530  -1.683 -38.888  0.00  0.00    +0.211 HD
ENDBRANCH  69  70
ENDBRANCH   1  69
TORSDOF 26
REMARK  Name = ../refined-set-2016/4ca8/4ca8_pocket.pdb
REMARK  304 active torsions:
REMARK  status: ('A' for Active; 'I' for Inactive)
REMARK    1  A    between atoms: _1  and  _3
REMARK    2  A    between atoms: _3  and  _4
REMARK    3  A    between atoms: _3  and  _6
REMARK    4  A    between atoms: _6  and  _7
REMARK    5  A    between atoms: _7  and  _8
REMARK    6  A    between atoms: _11  and  _13
REMARK    7  A    between atoms: _13  and  _14
REMARK    8  A    between atoms: _13  and  _16
REMARK    9  A    between atoms: _16  and  _17
REMARK   10  A    between atoms: _17  and  _18
REMARK   11  A    between atoms: _21  and  _23
REMARK   12  A    between atoms: _23  and  _24
REMARK   13  A    between atoms: _23  and  _26
REMARK   14  A    between atoms: _26  and  _27
REMARK   15  A    between atoms: _32  and  _34
REMARK   16  A    between atoms: _34  and  _35
REMARK   17  A    between atoms: _34  and  _37
REMARK   18  A    between atoms: _37  and  _38
REMARK   19  A    between atoms: _48  and  _50
REMARK   20  A    between atoms: _50  and  _51
REMARK   21  A    between atoms: _50  and  _53
REMARK   22  A    between atoms: _53  and  _54
REMARK   23  A    between atoms: _54  and  _55
REMARK   24  A    between atoms: _60  and  _62
REMARK   25  A    between atoms: _62  and  _63
REMARK   26  A    between atoms: _62  and  _65
REMARK   27  A    between atoms: _65  and  _66
REMARK   28  A    between atoms: _66  and  _67
REMARK   29  A    between atoms: _72  and  _74
REMARK   30  A    between atoms: _74  and  _75
REMARK   31  A    between atoms: _74  and  _77
REMARK   32  A    between atoms: _77  and  _78
REMARK   33  A    between atoms: _80  and  _82
REMARK   34  A    between atoms: _82  and  _83
REMARK   35  A    between atoms: _82  and  _85
REMARK   36  A    between atoms: _85  and  _86
REMARK   37  A    between atoms: _86  and  _87
REMARK   38  A    between atoms: _90  and  _92
REMARK   39  A    between atoms: _92  and  _93
REMARK   40  A    between atoms: _92  and  _95
REMARK   41  A    between atoms: _98  and  _100
REMARK   42  A    between atoms: _100  and  _101
REMARK   43  A    between atoms: _100  and  _103
REMARK   44  A    between atoms: _105  and  _107
REMARK   45  A    between atoms: _107  and  _108
REMARK   46  A    between atoms: _107  and  _110
REMARK   47  A    between atoms: _110  and  _111
REMARK   48  A    between atoms: _116  and  _118
REMARK   49  A    between atoms: _118  and  _119
REMARK   50  A    between atoms: _122  and  _124
REMARK   51  A    between atoms: _124  and  _125
REMARK   52  A    between atoms: _124  and  _127
REMARK   53  A    between atoms: _127  and  _128
REMARK   54  A    between atoms: _130  and  _132
REMARK   55  A    between atoms: _132  and  _133
REMARK   56  A    between atoms: _136  and  _138
REMARK   57  A    between atoms: _138  and  _139
REMARK   58  A    between atoms: _138  and  _141
REMARK   59  A    between atoms: _141  and  _142
REMARK   60  A    between atoms: _152  and  _154
REMARK   61  A    between atoms: _154  and  _155
REMARK   62  A    between atoms: _154  and  _157
REMARK   63  A    between atoms: _157  and  _158
REMARK   64  A    between atoms: _161  and  _163
REMARK   65  A    between atoms: _163  and  _164
REMARK   66  A    between atoms: _163  and  _166
REMARK   67  A    between atoms: _166  and  _167
REMARK   68  A    between atoms: _172  and  _173
REMARK   69  A    between atoms: _175  and  _177
REMARK   70  A    between atoms: _177  and  _178
REMARK   71  A    between atoms: _177  and  _180
REMARK   72  A    between atoms: _180  and  _181
REMARK   73  A    between atoms: _181  and  _182
REMARK   74  A    between atoms: _182  and  _183
REMARK   75  A    between atoms: _192  and  _194
REMARK   76  A    between atoms: _194  and  _195
REMARK   77  A    between atoms: _194  and  _197
REMARK   78  A    between atoms: _197  and  _198
REMARK   79  A    between atoms: _201  and  _203
REMARK   80  A    between atoms: _203  and  _204
REMARK   81  A    between atoms: _203  and  _206
REMARK   82  A    between atoms: _206  and  _207
REMARK   83  A    between atoms: _207  and  _208
REMARK   84  A    between atoms: _208  and  _209
REMARK   85  A    between atoms: _209  and  _210
REMARK   86  A    between atoms: _214  and  _216
REMARK   87  A    between atoms: _216  and  _217
REMARK   88  A    between atoms: _216  and  _219
REMARK   89  A    between atoms: _219  and  _220
REMARK   90  A    between atoms: _220  and  _221
REMARK   91  A    between atoms: _226  and  _228
REMARK   92  A    between atoms: _228  and  _229
REMARK   93  A    between atoms: _228  and  _231
REMARK   94  A    between atoms: _231  and  _232
REMARK   95  A    between atoms: _232  and  _233
REMARK   96  A    between atoms: _233  and  _234
REMARK   97  A    between atoms: _243  and  _245
REMARK   98  A    between atoms: _245  and  _246
REMARK   99  A    between atoms: _245  and  _248
REMARK  100  A    between atoms: _248  and  _249
REMARK  101  A    between atoms: _252  and  _254
REMARK  102  A    between atoms: _254  and  _255
REMARK  103  A    between atoms: _254  and  _257
REMARK  104  A    between atoms: _257  and  _258
REMARK  105  A    between atoms: _258  and  _259
REMARK  106  A    between atoms: _264  and  _266
REMARK  107  A    between atoms: _266  and  _267
REMARK  108  A    between atoms: _266  and  _269
REMARK  109  A    between atoms: _269  and  _270
REMARK  110  A    between atoms: _273  and  _275
REMARK  111  A    between atoms: _275  and  _276
REMARK  112  A    between atoms: _275  and  _278
REMARK  113  A    between atoms: _278  and  _279
REMARK  114  A    between atoms: _279  and  _280
REMARK  115  A    between atoms: _285  and  _287
REMARK  116  A    between atoms: _287  and  _288
REMARK  117  A    between atoms: _287  and  _290
REMARK  118  A    between atoms: _290  and  _291
REMARK  119  A    between atoms: _294  and  _296
REMARK  120  A    between atoms: _296  and  _297
REMARK  121  A    between atoms: _296  and  _299
REMARK  122  A    between atoms: _299  and  _300
REMARK  123  A    between atoms: _306  and  _308
REMARK  124  A    between atoms: _308  and  _309
REMARK  125  A    between atoms: _308  and  _311
REMARK  126  A    between atoms: _311  and  _312
REMARK  127  A    between atoms: _315  and  _317
REMARK  128  A    between atoms: _317  and  _318
REMARK  129  A    between atoms: _317  and  _320
REMARK  130  A    between atoms: _323  and  _325
REMARK  131  A    between atoms: _325  and  _326
REMARK  132  A    between atoms: _325  and  _328
REMARK  133  A    between atoms: _328  and  _329
REMARK  134  A    between atoms: _334  and  _336
REMARK  135  A    between atoms: _347  and  _350
REMARK  136  A    between atoms: _350  and  _351
REMARK  137  A    between atoms: _351  and  _352
REMARK  138  A    between atoms: _357  and  _360
REMARK  139  A    between atoms: _360  and  _361
REMARK  140  A    between atoms: _371  and  _372
REMARK  141  A    between atoms: _380  and  _382
REMARK  142  A    between atoms: _382  and  _383
REMARK  143  A    between atoms: _382  and  _385
REMARK  144  A    between atoms: _385  and  _386
REMARK  145  A    between atoms: _389  and  _391
REMARK  146  A    between atoms: _391  and  _392
REMARK  147  A    between atoms: _391  and  _394
REMARK  148  A    between atoms: _394  and  _395
REMARK  149  A    between atoms: _400  and  _401
REMARK  150  A    between atoms: _403  and  _405
REMARK  151  A    between atoms: _405  and  _406
REMARK  152  A    between atoms: _405  and  _408
REMARK  153  A    between atoms: _408  and  _409
REMARK  154  A    between atoms: _415  and  _417
REMARK  155  A    between atoms: _417  and  _418
REMARK  156  A    between atoms: _417  and  _420
REMARK  157  A    between atoms: _420  and  _421
REMARK  158  A    between atoms: _426  and  _427
REMARK  159  A    between atoms: _429  and  _431
REMARK  160  A    between atoms: _431  and  _432
REMARK  161  A    between atoms: _431  and  _434
REMARK  162  A    between atoms: _434  and  _435
REMARK  163  A    between atoms: _435  and  _436
REMARK  164  A    between atoms: _436  and  _437
REMARK  165  A    between atoms: _446  and  _448
REMARK  166  A    between atoms: _448  and  _449
REMARK  167  A    between atoms: _448  and  _451
REMARK  168  A    between atoms: _451  and  _452
REMARK  169  A    between atoms: _455  and  _457
REMARK  170  A    between atoms: _457  and  _458
REMARK  171  A    between atoms: _460  and  _462
REMARK  172  A    between atoms: _462  and  _463
REMARK  173  A    between atoms: _462  and  _465
REMARK  174  A    between atoms: _465  and  _466
REMARK  175  A    between atoms: _472  and  _473
REMARK  176  A    between atoms: _478  and  _480
REMARK  177  A    between atoms: _480  and  _481
REMARK  178  A    between atoms: _483  and  _485
REMARK  179  A    between atoms: _485  and  _486
REMARK  180  A    between atoms: _485  and  _488
REMARK  181  A    between atoms: _488  and  _489
REMARK  182  A    between atoms: _495  and  _497
REMARK  183  A    between atoms: _497  and  _498
REMARK  184  A    between atoms: _497  and  _500
REMARK  185  A    between atoms: _500  and  _501
REMARK  186  A    between atoms: _506  and  _508
REMARK  187  A    between atoms: _508  and  _509
REMARK  188  A    between atoms: _508  and  _511
REMARK  189  A    between atoms: _511  and  _512
REMARK  190  A    between atoms: _512  and  _513
REMARK  191  A    between atoms: _513  and  _514
REMARK  192  A    between atoms: _514  and  ZN_788
REMARK  193  A    between atoms: _516  and  _518
REMARK  194  A    between atoms: _518  and  _519
REMARK  195  A    between atoms: _522  and  _524
REMARK  196  A    between atoms: _524  and  _525
REMARK  197  A    between atoms: _527  and  _529
REMARK  198  A    between atoms: _529  and  _530
REMARK  199  A    between atoms: _529  and  _532
REMARK  200  A    between atoms: _532  and  _533
REMARK  201  A    between atoms: _536  and  _538
REMARK  202  A    between atoms: _538  and  _539
REMARK  203  A    between atoms: _538  and  _541
REMARK  204  A    between atoms: _544  and  _546
REMARK  205  A    between atoms: _546  and  _547
REMARK  206  A    between atoms: _546  and  _549
REMARK  207  A    between atoms: _549  and  _550
REMARK  208  A    between atoms: _552  and  _554
REMARK  209  A    between atoms: _554  and  _555
REMARK  210  A    between atoms: _554  and  _557
REMARK  211  A    between atoms: _557  and  _558
REMARK  212  A    between atoms: _561  and  _563
REMARK  213  A    between atoms: _563  and  _564
REMARK  214  A    between atoms: _563  and  _566
REMARK  215  A    between atoms: _566  and  _567
REMARK  216  A    between atoms: _570  and  _572
REMARK  217  A    between atoms: _572  and  _573
REMARK  218  A    between atoms: _572  and  _575
REMARK  219  A    between atoms: _575  and  _576
REMARK  220  A    between atoms: _576  and  _577
REMARK  221  A    between atoms: _577  and  _578
REMARK  222  A    between atoms: _578  and  _579
REMARK  223  A    between atoms: _583  and  _585
REMARK  224  A    between atoms: _585  and  _586
REMARK  225  A    between atoms: _585  and  _588
REMARK  226  A    between atoms: _588  and  _589
REMARK  227  A    between atoms: _595  and  _597
REMARK  228  A    between atoms: _597  and  _598
REMARK  229  A    between atoms: _597  and  _600
REMARK  230  A    between atoms: _600  and  _601
REMARK  231  A    between atoms: _607  and  _609
REMARK  232  A    between atoms: _609  and  _610
REMARK  233  A    between atoms: _613  and  _615
REMARK  234  A    between atoms: _615  and  _616
REMARK  235  A    between atoms: _615  and  _618
REMARK  236  A    between atoms: _618  and  _619
REMARK  237  A    between atoms: _619  and  _620
REMARK  238  A    between atoms: _622  and  _624
REMARK  239  A    between atoms: _624  and  _625
REMARK  240  A    between atoms: _624  and  _627
REMARK  241  A    between atoms: _627  and  _628
REMARK  242  A    between atoms: _628  and  _629
REMARK  243  A    between atoms: _629  and  _630
REMARK  244  A    between atoms: _630  and  _631
REMARK  245  A    between atoms: _635  and  _637
REMARK  246  A    between atoms: _637  and  _638
REMARK  247  A    between atoms: _637  and  _640
REMARK  248  A    between atoms: _640  and  _641
REMARK  249  A    between atoms: _646  and  _647
REMARK  250  A    between atoms: _649  and  _651
REMARK  251  A    between atoms: _651  and  _652
REMARK  252  A    between atoms: _651  and  _654
REMARK  253  A    between atoms: _654  and  _655
REMARK  254  A    between atoms: _660  and  _662
REMARK  255  A    between atoms: _662  and  _663
REMARK  256  A    between atoms: _662  and  _665
REMARK  257  A    between atoms: _665  and  _666
REMARK  258  A    between atoms: _669  and  _671
REMARK  259  A    between atoms: _671  and  _672
REMARK  260  A    between atoms: _675  and  _677
REMARK  261  A    between atoms: _677  and  _678
REMARK  262  A    between atoms: _677  and  _680
REMARK  263  A    between atoms: _680  and  _681
REMARK  264  A    between atoms: _684  and  _686
REMARK  265  A    between atoms: _686  and  _687
REMARK  266  A    between atoms: _686  and  _689
REMARK  267  A    between atoms: _692  and  _694
REMARK  268  A    between atoms: _694  and  _695
REMARK  269  A    between atoms: _694  and  _697
REMARK  270  A    between atoms: _697  and  _698
REMARK  271  A    between atoms: _698  and  _699
REMARK  272  A    between atoms: _702  and  _704
REMARK  273  A    between atoms: _704  and  _705
REMARK  274  A    between atoms: _704  and  _707
REMARK  275  A    between atoms: _707  and  _708
REMARK  276  A    between atoms: _713  and  _714
REMARK  277  A    between atoms: _716  and  _718
REMARK  278  A    between atoms: _718  and  _719
REMARK  279  A    between atoms: _718  and  _721
REMARK  280  A    between atoms: _721  and  _722
REMARK  281  A    between atoms: _722  and  _723
REMARK  282  A    between atoms: _723  and  _724
REMARK  283  A    between atoms: _733  and  _735
REMARK  284  A    between atoms: _735  and  _736
REMARK  285  A    between atoms: _735  and  _738
REMARK  286  A    between atoms: _738  and  _739
REMARK  287  A    between atoms: _744  and  _745
REMARK  288  A    between atoms: _747  and  _749
REMARK  289  A    between atoms: _749  and  _750
REMARK  290  A    between atoms: _749  and  _752
REMARK  291  A    between atoms: _752  and  _753
REMARK  292  A    between atoms: _756  and  _758
REMARK  293  A    between atoms: _758  and  _759
REMARK  294  A    between atoms: _758  and  _761
REMARK  295  A    between atoms: _761  and  _762
REMARK  296  A    between atoms: _764  and  _766
REMARK  297  A    between atoms: _766  and  _767
REMARK  298  A    between atoms: _766  and  _769
REMARK  299  A    between atoms: _769  and  _770
REMARK  300  A    between atoms: _776  and  _778
REMARK  301  A    between atoms: _778  and  _779
REMARK  302  A    between atoms: _778  and  _781
REMARK  303  A    between atoms: _781  and  _782
REMARK  304  A    between atoms: _782  and  _783
REMARK                            x       y       z     vdW  Elec       q    Type
REMARK                         _______ _______ _______ _____ _____    ______ ____
ROOT
ATOM      1  CG  TYR A   1      17.899 -11.574 -50.142  0.00  0.00    -0.020 A 
ATOM      2  CD2 TYR A   1      18.477 -11.831 -48.909  0.00  0.00    -0.001 A 
ATOM      3  CE2 TYR A   1      19.722 -11.329 -48.591  0.00  0.00    +0.036 A 
ATOM      4  CZ  TYR A   1      20.398 -10.549 -49.507  0.00  0.00    +0.134 A 
ATOM      5  CE1 TYR A   1      19.848 -10.272 -50.743  0.00  0.00    +0.036 A 
ATOM      6  CD1 TYR A   1      18.602 -10.786 -51.054  0.00  0.00    -0.001 A 
ENDROOT
BRANCH   4   7
ATOM      7  OH  TYR A   1      21.637 -10.061 -49.161  0.00  0.00    -0.506 OA
ATOM      8  HH  TYR A   1      21.999  -9.523 -49.909  0.00  0.00    +0.292 HD
ENDBRANCH   4   7
BRANCH   1   9
ATOM      9  CB  TYR A   1      16.545 -12.119 -50.478  0.00  0.00    +0.051 C 
BRANCH   9  10
ATOM     10  CA  TYR A   1      15.463 -11.036 -50.464  0.00  0.00    +0.137 C 
BRANCH  10  11
ATOM     11  N   TYR A   1      15.497 -10.260 -49.211  0.00  0.00    -0.239 NA
ATOM     12  H   TYR A   1      15.656  -9.234 -49.272  0.00  0.00    +0.142 HD
ENDBRANCH  10  11
BRANCH  10  13
ATOM     13  C   TYR A   1      14.121 -11.662 -50.786  0.00  0.00    +0.224 C 
ATOM     14  O   TYR A   1      14.068 -12.719 -51.392  0.00  0.00    -0.287 OA
ENDBRANCH  10  13
ENDBRANCH   9  10
ENDBRANCH   1   9
TORSDOF 5
REMARK  Name = ../refined-set-2016/4ca8/4ca8_pocket.pdb
REMARK  304 active torsions:
REMARK  status: ('A' for Active; 'I' for Inactive)
REMARK    1  A    between atoms: _1  and  _3
REMARK    2  A    between atoms: _3  and  _4
REMARK    3  A    between atoms: _3  and  _6
REMARK    4  A    between atoms: _6  and  _7
REMARK    5  A    between atoms: _7  and  _8
REMARK    6  A    between atoms: _11  and  _13
REMARK    7  A    between atoms: _13  and  _14
REMARK    8  A    between atoms: _13  and  _16
REMARK    9  A    between atoms: _16  and  _17
REMARK   10  A    between atoms: _17  and  _18
REMARK   11  A    between atoms: _21  and  _23
REMARK   12  A    between atoms: _23  and  _24
REMARK   13  A    between atoms: _23  and  _26
REMARK   14  A    between atoms: _26  and  _27
REMARK   15  A    between atoms: _32  and  _34
REMARK   16  A    between atoms: _34  and  _35
REMARK   17  A    between atoms: _34  and  _37
REMARK   18  A    between atoms: _37  and  _38
REMARK   19  A    between atoms: _48  and  _50
REMARK   20  A    between atoms: _50  and  _51
REMARK   21  A    between atoms: _50  and  _53
REMARK   22  A    between atoms: _53  and  _54
REMARK   23  A    between atoms: _54  and  _55
REMARK   24  A    between atoms: _60  and  _62
REMARK   25  A    between atoms: _62  and  _63
REMARK   26  A    between atoms: _62  and  _65
REMARK   27  A    between atoms: _65  and  _66
REMARK   28  A    between atoms: _66  and  _67
REMARK   29  A    between atoms: _72  and  _74
REMARK   30  A    between atoms: _74  and  _75
REMARK   31  A    between atoms: _74  and  _77
REMARK   32  A    between atoms: _77  and  _78
REMARK   33  A    between atoms: _80  and  _82
REMARK   34  A    between atoms: _82  and  _83
REMARK   35  A    between atoms: _82  and  _85
REMARK   36  A    between atoms: _85  and  _86
REMARK   37  A    between atoms: _86  and  _87
REMARK   38  A    between atoms: _90  and  _92
REMARK   39  A    between atoms: _92  and  _93
REMARK   40  A    between atoms: _92  and  _95
REMARK   41  A    between atoms: _98  and  _100
REMARK   42  A    between atoms: _100  and  _101
REMARK   43  A    between atoms: _100  and  _103
REMARK   44  A    between atoms: _105  and  _107
REMARK   45  A    between atoms: _107  and  _108
REMARK   46  A    between atoms: _107  and  _110
REMARK   47  A    between atoms: _110  and  _111
REMARK   48  A    between atoms: _116  and  _118
REMARK   49  A    between atoms: _118  and  _119
REMARK   50  A    between atoms: _122  and  _124
REMARK   51  A    between atoms: _124  and  _125
REMARK   52  A    between atoms: _124  and  _127
REMARK   53  A    between atoms: _127  and  _128
REMARK   54  A    between atoms: _130  and  _132
REMARK   55  A    between atoms: _132  and  _133
REMARK   56  A    between atoms: _136  and  _138
REMARK   57  A    between atoms: _138  and  _139
REMARK   58  A    between atoms: _138  and  _141
REMARK   59  A    between atoms: _141  and  _142
REMARK   60  A    between atoms: _152  and  _154
REMARK   61  A    between atoms: _154  and  _155
REMARK   62  A    between atoms: _154  and  _157
REMARK   63  A    between atoms: _157  and  _158
REMARK   64  A    between atoms: _161  and  _163
REMARK   65  A    between atoms: _163  and  _164
REMARK   66  A    between atoms: _163  and  _166
REMARK   67  A    between atoms: _166  and  _167
REMARK   68  A    between atoms: _172  and  _173
REMARK   69  A    between atoms: _175  and  _177
REMARK   70  A    between atoms: _177  and  _178
REMARK   71  A    between atoms: _177  and  _180
REMARK   72  A    between atoms: _180  and  _181
REMARK   73  A    between atoms: _181  and  _182
REMARK   74  A    between atoms: _182  and  _183
REMARK   75  A    between atoms: _192  and  _194
REMARK   76  A    between atoms: _194  and  _195
REMARK   77  A    between atoms: _194  and  _197
REMARK   78  A    between atoms: _197  and  _198
REMARK   79  A    between atoms: _201  and  _203
REMARK   80  A    between atoms: _203  and  _204
REMARK   81  A    between atoms: _203  and  _206
REMARK   82  A    between atoms: _206  and  _207
REMARK   83  A    between atoms: _207  and  _208
REMARK   84  A    between atoms: _208  and  _209
REMARK   85  A    between atoms: _209  and  _210
REMARK   86  A    between atoms: _214  and  _216
REMARK   87  A    between atoms: _216  and  _217
REMARK   88  A    between atoms: _216  and  _219
REMARK   89  A    between atoms: _219  and  _220
REMARK   90  A    between atoms: _220  and  _221
REMARK   91  A    between atoms: _226  and  _228
REMARK   92  A    between atoms: _228  and  _229
REMARK   93  A    between atoms: _228  and  _231
REMARK   94  A    between atoms: _231  and  _232
REMARK   95  A    between atoms: _232  and  _233
REMARK   96  A    between atoms: _233  and  _234
REMARK   97  A    between atoms: _243  and  _245
REMARK   98  A    between atoms: _245  and  _246
REMARK   99  A    between atoms: _245  and  _248
REMARK  100  A    between atoms: _248  and  _249
REMARK  101  A    between atoms: _252  and  _254
REMARK  102  A    between atoms: _254  and  _255
REMARK  103  A    between atoms: _254  and  _257
REMARK  104  A    between atoms: _257  and  _258
REMARK  105  A    between atoms: _258  and  _259
REMARK  106  A    between atoms: _264  and  _266
REMARK  107  A    between atoms: _266  and  _267
REMARK  108  A    between atoms: _266  and  _269
REMARK  109  A    between atoms: _269  and  _270
REMARK  110  A    between atoms: _273  and  _275
REMARK  111  A    between atoms: _275  and  _276
REMARK  112  A    between atoms: _275  and  _278
REMARK  113  A    between atoms: _278  and  _279
REMARK  114  A    between atoms: _279  and  _280
REMARK  115  A    between atoms: _285  and  _287
REMARK  116  A    between atoms: _287  and  _288
REMARK  117  A    between atoms: _287  and  _290
REMARK  118  A    between atoms: _290  and  _291
REMARK  119  A    between atoms: _294  and  _296
REMARK  120  A    between atoms: _296  and  _297
REMARK  121  A    between atoms: _296  and  _299
REMARK  122  A    between atoms: _299  and  _300
REMARK  123  A    between atoms: _306  and  _308
REMARK  124  A    between atoms: _308  and  _309
REMARK  125  A    between atoms: _308  and  _311
REMARK  126  A    between atoms: _311  and  _312
REMARK  127  A    between atoms: _315  and  _317
REMARK  128  A    between atoms: _317  and  _318
REMARK  129  A    between atoms: _317  and  _320
REMARK  130  A    between atoms: _323  and  _325
REMARK  131  A    between atoms: _325  and  _326
REMARK  132  A    between atoms: _325  and  _328
REMARK  133  A    between atoms: _328  and  _329
REMARK  134  A    between atoms: _334  and  _336
REMARK  135  A    between atoms: _347  and  _350
REMARK  136  A    between atoms: _350  and  _351
REMARK  137  A    between atoms: _351  and  _352
REMARK  138  A    between atoms: _357  and  _360
REMARK  139  A    between atoms: _360  and  _361
REMARK  140  A    between atoms: _371  and  _372
REMARK  141  A    between atoms: _380  and  _382
REMARK  142  A    between atoms: _382  and  _383
REMARK  143  A    between atoms: _382  and  _385
REMARK  144  A    between atoms: _385  and  _386
REMARK  145  A    between atoms: _389  and  _391
REMARK  146  A    between atoms: _391  and  _392
REMARK  147  A    between atoms: _391  and  _394
REMARK  148  A    between atoms: _394  and  _395
REMARK  149  A    between atoms: _400  and  _401
REMARK  150  A    between atoms: _403  and  _405
REMARK  151  A    between atoms: _405  and  _406
REMARK  152  A    between atoms: _405  and  _408
REMARK  153  A    between atoms: _408  and  _409
REMARK  154  A    between atoms: _415  and  _417
REMARK  155  A    between atoms: _417  and  _418
REMARK  156  A    between atoms: _417  and  _420
REMARK  157  A    between atoms: _420  and  _421
REMARK  158  A    between atoms: _426  and  _427
REMARK  159  A    between atoms: _429  and  _431
REMARK  160  A    between atoms: _431  and  _432
REMARK  161  A    between atoms: _431  and  _434
REMARK  162  A    between atoms: _434  and  _435
REMARK  163  A    between atoms: _435  and  _436
REMARK  164  A    between atoms: _436  and  _437
REMARK  165  A    between atoms: _446  and  _448
REMARK  166  A    between atoms: _448  and  _449
REMARK  167  A    between atoms: _448  and  _451
REMARK  168  A    between atoms: _451  and  _452
REMARK  169  A    between atoms: _455  and  _457
REMARK  170  A    between atoms: _457  and  _458
REMARK  171  A    between atoms: _460  and  _462
REMARK  172  A    between atoms: _462  and  _463
REMARK  173  A    between atoms: _462  and  _465
REMARK  174  A    between atoms: _465  and  _466
REMARK  175  A    between atoms: _472  and  _473
REMARK  176  A    between atoms: _478  and  _480
REMARK  177  A    between atoms: _480  and  _481
REMARK  178  A    between atoms: _483  and  _485
REMARK  179  A    between atoms: _485  and  _486
REMARK  180  A    between atoms: _485  and  _488
REMARK  181  A    between atoms: _488  and  _489
REMARK  182  A    between atoms: _495  and  _497
REMARK  183  A    between atoms: _497  and  _498
REMARK  184  A    between atoms: _497  and  _500
REMARK  185  A    between atoms: _500  and  _501
REMARK  186  A    between atoms: _506  and  _508
REMARK  187  A    between atoms: _508  and  _509
REMARK  188  A    between atoms: _508  and  _511
REMARK  189  A    between atoms: _511  and  _512
REMARK  190  A    between atoms: _512  and  _513
REMARK  191  A    between atoms: _513  and  _514
REMARK  192  A    between atoms: _514  and  ZN_788
REMARK  193  A    between atoms: _516  and  _518
REMARK  194  A    between atoms: _518  and  _519
REMARK  195  A    between atoms: _522  and  _524
REMARK  196  A    between atoms: _524  and  _525
REMARK  197  A    between atoms: _527  and  _529
REMARK  198  A    between atoms: _529  and  _530
REMARK  199  A    between atoms: _529  and  _532
REMARK  200  A    between atoms: _532  and  _533
REMARK  201  A    between atoms: _536  and  _538
REMARK  202  A    between atoms: _538  and  _539
REMARK  203  A    between atoms: _538  and  _541
REMARK  204  A    between atoms: _544  and  _546
REMARK  205  A    between atoms: _546  and  _547
REMARK  206  A    between atoms: _546  and  _549
REMARK  207  A    between atoms: _549  and  _550
REMARK  208  A    between atoms: _552  and  _554
REMARK  209  A    between atoms: _554  and  _555
REMARK  210  A    between atoms: _554  and  _557
REMARK  211  A    between atoms: _557  and  _558
REMARK  212  A    between atoms: _561  and  _563
REMARK  213  A    between atoms: _563  and  _564
REMARK  214  A    between atoms: _563  and  _566
REMARK  215  A    between atoms: _566  and  _567
REMARK  216  A    between atoms: _570  and  _572
REMARK  217  A    between atoms: _572  and  _573
REMARK  218  A    between atoms: _572  and  _575
REMARK  219  A    between atoms: _575  and  _576
REMARK  220  A    between atoms: _576  and  _577
REMARK  221  A    between atoms: _577  and  _578
REMARK  222  A    between atoms: _578  and  _579
REMARK  223  A    between atoms: _583  and  _585
REMARK  224  A    between atoms: _585  and  _586
REMARK  225  A    between atoms: _585  and  _588
REMARK  226  A    between atoms: _588  and  _589
REMARK  227  A    between atoms: _595  and  _597
REMARK  228  A    between atoms: _597  and  _598
REMARK  229  A    between atoms: _597  and  _600
REMARK  230  A    between atoms: _600  and  _601
REMARK  231  A    between atoms: _607  and  _609
REMARK  232  A    between atoms: _609  and  _610
REMARK  233  A    between atoms: _613  and  _615
REMARK  234  A    between atoms: _615  and  _616
REMARK  235  A    between atoms: _615  and  _618
REMARK  236  A    between atoms: _618  and  _619
REMARK  237  A    between atoms: _619  and  _620
REMARK  238  A    between atoms: _622  and  _624
REMARK  239  A    between atoms: _624  and  _625
REMARK  240  A    between atoms: _624  and  _627
REMARK  241  A    between atoms: _627  and  _628
REMARK  242  A    between atoms: _628  and  _629
REMARK  243  A    between atoms: _629  and  _630
REMARK  244  A    between atoms: _630  and  _631
REMARK  245  A    between atoms: _635  and  _637
REMARK  246  A    between atoms: _637  and  _638
REMARK  247  A    between atoms: _637  and  _640
REMARK  248  A    between atoms: _640  and  _641
REMARK  249  A    between atoms: _646  and  _647
REMARK  250  A    between atoms: _649  and  _651
REMARK  251  A    between atoms: _651  and  _652
REMARK  252  A    between atoms: _651  and  _654
REMARK  253  A    between atoms: _654  and  _655
REMARK  254  A    between atoms: _660  and  _662
REMARK  255  A    between atoms: _662  and  _663
REMARK  256  A    between atoms: _662  and  _665
REMARK  257  A    between atoms: _665  and  _666
REMARK  258  A    between atoms: _669  and  _671
REMARK  259  A    between atoms: _671  and  _672
REMARK  260  A    between atoms: _675  and  _677
REMARK  261  A    between atoms: _677  and  _678
REMARK  262  A    between atoms: _677  and  _680
REMARK  263  A    between atoms: _680  and  _681
REMARK  264  A    between atoms: _684  and  _686
REMARK  265  A    between atoms: _686  and  _687
REMARK  266  A    between atoms: _686  and  _689
REMARK  267  A    between atoms: _692  and  _694
REMARK  268  A    between atoms: _694  and  _695
REMARK  269  A    between atoms: _694  and  _697
REMARK  270  A    between atoms: _697  and  _698
REMARK  271  A    between atoms: _698  and  _699
REMARK  272  A    between atoms: _702  and  _704
REMARK  273  A    between atoms: _704  and  _705
REMARK  274  A    between atoms: _704  and  _707
REMARK  275  A    between atoms: _707  and  _708
REMARK  276  A    between atoms: _713  and  _714
REMARK  277  A    between atoms: _716  and  _718
REMARK  278  A    between atoms: _718  and  _719
REMARK  279  A    between atoms: _718  and  _721
REMARK  280  A    between atoms: _721  and  _722
REMARK  281  A    between atoms: _722  and  _723
REMARK  282  A    between atoms: _723  and  _724
REMARK  283  A    between atoms: _733  and  _735
REMARK  284  A    between atoms: _735  and  _736
REMARK  285  A    between atoms: _735  and  _738
REMARK  286  A    between atoms: _738  and  _739
REMARK  287  A    between atoms: _744  and  _745
REMARK  288  A    between atoms: _747  and  _749
REMARK  289  A    between atoms: _749  and  _750
REMARK  290  A    between atoms: _749  and  _752
REMARK  291  A    between atoms: _752  and  _753
REMARK  292  A    between atoms: _756  and  _758
REMARK  293  A    between atoms: _758  and  _759
REMARK  294  A    between atoms: _758  and  _761
REMARK  295  A    between atoms: _761  and  _762
REMARK  296  A    between atoms: _764  and  _766
REMARK  297  A    between atoms: _766  and  _767
REMARK  298  A    between atoms: _766  and  _769
REMARK  299  A    between atoms: _769  and  _770
REMARK  300  A    between atoms: _776  and  _778
REMARK  301  A    between atoms: _778  and  _779
REMARK  302  A    between atoms: _778  and  _781
REMARK  303  A    between atoms: _781  and  _782
REMARK  304  A    between atoms: _782  and  _783
REMARK                            x       y       z     vdW  Elec       q    Type
REMARK                         _______ _______ _______ _____ _____    ______ ____
ROOT
ATOM      1  C   ILE A   2      17.023  -0.310 -39.916  0.00  0.00    +0.241 C 
ATOM      2  O   ILE A   2      15.985  -0.367 -39.263  0.00  0.00    -0.273 OA
ATOM      3  N   LYS A   3      18.230  -0.495 -39.397  0.00  0.00    -0.297 N 
ATOM      4  H   LYS A   3      19.020  -0.715 -40.037  0.00  0.00    +0.150 HD
ENDROOT
BRANCH   3   5
ATOM      5  CA  LYS A   3      18.492  -0.403 -37.979  0.00  0.00    +0.149 C 
BRANCH   5   6
ATOM      6  C   LYS A   3      19.453   0.772 -37.769  0.00  0.00    +0.241 C 
ATOM      7  N   GLN A   4      18.947   1.822 -37.120  0.00  0.00    -0.298 N 
ATOM      8  H   GLN A   4      17.953   1.788 -36.816  0.00  0.00    +0.150 HD
ATOM      9  O   LYS A   3      20.608   0.734 -38.220  0.00  0.00    -0.273 OA
BRANCH   7  10
ATOM     10  CA  GLN A   4      19.722   3.006 -36.821  0.00  0.00    +0.137 C 
BRANCH  10  11
ATOM     11  C   GLN A   4      19.345   3.529 -35.450  0.00  0.00    +0.227 C 
ATOM     12  O   GLN A   4      18.157   3.685 -35.160  0.00  0.00    -0.286 OA
ENDBRANCH  10  11
BRANCH  10  13
ATOM     13  CB  GLN A   4      19.440   4.081 -37.862  0.00  0.00    +0.037 C 
BRANCH  13  14
ATOM     14  CG  GLN A   4      20.268   5.346 -37.670  0.00  0.00    +0.087 C 
BRANCH  14  15
ATOM     15  CD  GLN A   4      20.170   6.307 -38.841  0.00  0.00    +0.219 C 
ATOM     16  NE2 GLN A   4      20.513   7.567 -38.602  0.00  0.00    -0.329 N 
ATOM     17 HE21 GLN A   4      20.823   7.850 -37.651  0.00  0.00    +0.145 HD
ATOM     18 HE22 GLN A   4      20.471   8.271 -39.366  0.00  0.00    +0.145 HD
ATOM     19  OE1 GLN A   4      19.798   5.924 -39.944  0.00  0.00    -0.275 OA
ENDBRANCH  14  15
ENDBRANCH  13  14
ENDBRANCH  10  13
ENDBRANCH   7  10
ENDBRANCH   5   6
BRANCH   5  20
ATOM     20  CB  LYS A   3      19.086  -1.697 -37.450  0.00  0.00    +0.029 C 
BRANCH  20  21
ATOM     21  CG  LYS A   3      19.350  -1.663 -35.954  0.00  0.00    +0.000 C 
BRANCH  21  22
ATOM     22  CD  LYS A   3      19.336  -3.051 -35.329  0.00  0.00    -0.024 C 
BRANCH  22  23
ATOM     23  CE  LYS A   3      20.405  -3.983 -35.893  0.00  0.00    -0.086 C 
BRANCH  23  24
ATOM     24  NZ  LYS A   3      21.794  -3.565 -35.568  0.00  0.00    +0.380 N 
ATOM     25  HZ1 LYS A   3      21.915  -3.543 -34.535  0.00  0.00    -0.089 HD
ATOM     26  HZ2 LYS A   3      21.970  -2.618 -35.960  0.00  0.00    -0.089 HD
ATOM     27  HZ3 LYS A   3      22.465  -4.243 -35.983  0.00  0.00    -0.089 HD
ENDBRANCH  23  24
ENDBRANCH  22  23
ENDBRANCH  21  22
ENDBRANCH  20  21
ENDBRANCH   5  20
ENDBRANCH   3   5
BRANCH   1  28
ATOM     28  CA  ILE A   2      16.992  -0.100 -41.417  0.00  0.00    +0.148 C 
BRANCH  28  30
ATOM     29  C   ARG A   1      15.928  -1.795 -42.804  0.00  0.00    +0.238 C 
ATOM     30  N   ILE A   2      15.826  -0.770 -41.958  0.00  0.00    -0.297 N 
ATOM     31  H   ILE A   2      14.880  -0.441 -41.677  0.00  0.00    +0.150 HD
ATOM     32  O   ARG A   1      16.988  -2.144 -43.341  0.00  0.00    -0.274 OA
BRANCH  29  33
ATOM     33  CA  ARG A   1      14.644  -2.565 -43.055  0.00  0.00    +0.145 C 
BRANCH  33  34
ATOM     34  N   ARG A   1      14.659  -3.238 -44.361  0.00  0.00    -0.238 NA
ATOM     35  H   ARG A   1      15.560  -3.612 -44.720  0.00  0.00    +0.142 HD
ENDBRANCH  33  34
BRANCH  33  36
ATOM     36  CB  ARG A   1      14.532  -3.573 -41.923  0.00  0.00    +0.030 C 
BRANCH  36  37
ATOM     37  CG  ARG A   1      13.439  -4.574 -42.104  0.00  0.00    +0.045 C 
BRANCH  37  38
ATOM     38  CD  ARG A   1      13.484  -5.642 -41.039  0.00  0.00    +0.174 C 
BRANCH  38  39
ATOM     39  NE  ARG A   1      12.755  -6.803 -41.524  0.00  0.00    -0.265 N 
ATOM     40  CZ  ARG A   1      12.735  -7.985 -40.928  0.00  0.00    +0.342 C 
ATOM     41  NH2 ARG A   1      13.397  -8.188 -39.792  0.00  0.00    -0.292 N 
ATOM     42 HH21 ARG A   1      13.372  -9.122 -39.335  0.00  0.00    +0.255 HD
ATOM     43 HH22 ARG A   1      13.940  -7.413 -39.361  0.00  0.00    +0.255 HD
ATOM     44  NH1 ARG A   1      12.049  -8.968 -41.485  0.00  0.00    -0.292 N 
ATOM     45 HH11 ARG A   1      12.021  -9.904 -41.032  0.00  0.00    +0.255 HD
ATOM     46 HH12 ARG A   1      11.537  -8.805 -42.376  0.00  0.00    +0.255 HD
ATOM     47  HE  ARG A   1      12.210  -6.697 -42.403  0.00  0.00    +0.259 HD
ENDBRANCH  38  39
ENDBRANCH  37  38
ENDBRANCH  36  37
ENDBRANCH  33  36
ENDBRANCH  29  33
ENDBRANCH  28  30
BRANCH  28  48
ATOM     48  CB  ILE A   2      17.014   1.396 -41.787  0.00  0.00    +0.027 C 
ATOM     49  CG2 ILE A   2      17.898   2.209 -40.838  0.00  0.00    +0.002 C 
BRANCH  48  50
ATOM     50  CG1 ILE A   2      17.544   1.550 -43.215  0.00  0.00    +0.002 C 
ATOM     51  CD1 ILE A   2      17.195   2.867 -43.859  0.00  0.00    +0.000 C 
ENDBRANCH  48  50
ENDBRANCH  28  48
ENDBRANCH   1  28
TORSDOF 22
REMARK  Name = ../refined-set-2016/4ca8/4ca8_pocket.pdb
REMARK  304 active torsions:
REMARK  status: ('A' for Active; 'I' for Inactive)
REMARK    1  A    between atoms: _1  and  _3
REMARK    2  A    between atoms: _3  and  _4
REMARK    3  A    between atoms: _3  and  _6
REMARK    4  A    between atoms: _6  and  _7
REMARK    5  A    between atoms: _7  and  _8
REMARK    6  A    between atoms: _11  and  _13
REMARK    7  A    between atoms: _13  and  _14
REMARK    8  A    between atoms: _13  and  _16
REMARK    9  A    between atoms: _16  and  _17
REMARK   10  A    between atoms: _17  and  _18
REMARK   11  A    between atoms: _21  and  _23
REMARK   12  A    between atoms: _23  and  _24
REMARK   13  A    between atoms: _23  and  _26
REMARK   14  A    between atoms: _26  and  _27
REMARK   15  A    between atoms: _32  and  _34
REMARK   16  A    between atoms: _34  and  _35
REMARK   17  A    between atoms: _34  and  _37
REMARK   18  A    between atoms: _37  and  _38
REMARK   19  A    between atoms: _48  and  _50
REMARK   20  A    between atoms: _50  and  _51
REMARK   21  A    between atoms: _50  and  _53
REMARK   22  A    between atoms: _53  and  _54
REMARK   23  A    between atoms: _54  and  _55
REMARK   24  A    between atoms: _60  and  _62
REMARK   25  A    between atoms: _62  and  _63
REMARK   26  A    between atoms: _62  and  _65
REMARK   27  A    between atoms: _65  and  _66
REMARK   28  A    between atoms: _66  and  _67
REMARK   29  A    between atoms: _72  and  _74
REMARK   30  A    between atoms: _74  and  _75
REMARK   31  A    between atoms: _74  and  _77
REMARK   32  A    between atoms: _77  and  _78
REMARK   33  A    between atoms: _80  and  _82
REMARK   34  A    between atoms: _82  and  _83
REMARK   35  A    between atoms: _82  and  _85
REMARK   36  A    between atoms: _85  and  _86
REMARK   37  A    between atoms: _86  and  _87
REMARK   38  A    between atoms: _90  and  _92
REMARK   39  A    between atoms: _92  and  _93
REMARK   40  A    between atoms: _92  and  _95
REMARK   41  A    between atoms: _98  and  _100
REMARK   42  A    between atoms: _100  and  _101
REMARK   43  A    between atoms: _100  and  _103
REMARK   44  A    between atoms: _105  and  _107
REMARK   45  A    between atoms: _107  and  _108
REMARK   46  A    between atoms: _107  and  _110
REMARK   47  A    between atoms: _110  and  _111
REMARK   48  A    between atoms: _116  and  _118
REMARK   49  A    between atoms: _118  and  _119
REMARK   50  A    between atoms: _122  and  _124
REMARK   51  A    between atoms: _124  and  _125
REMARK   52  A    between atoms: _124  and  _127
REMARK   53  A    between atoms: _127  and  _128
REMARK   54  A    between atoms: _130  and  _132
REMARK   55  A    between atoms: _132  and  _133
REMARK   56  A    between atoms: _136  and  _138
REMARK   57  A    between atoms: _138  and  _139
REMARK   58  A    between atoms: _138  and  _141
REMARK   59  A    between atoms: _141  and  _142
REMARK   60  A    between atoms: _152  and  _154
REMARK   61  A    between atoms: _154  and  _155
REMARK   62  A    between atoms: _154  and  _157
REMARK   63  A    between atoms: _157  and  _158
REMARK   64  A    between atoms: _161  and  _163
REMARK   65  A    between atoms: _163  and  _164
REMARK   66  A    between atoms: _163  and  _166
REMARK   67  A    between atoms: _166  and  _167
REMARK   68  A    between atoms: _172  and  _173
REMARK   69  A    between atoms: _175  and  _177
REMARK   70  A    between atoms: _177  and  _178
REMARK   71  A    between atoms: _177  and  _180
REMARK   72  A    between atoms: _180  and  _181
REMARK   73  A    between atoms: _181  and  _182
REMARK   74  A    between atoms: _182  and  _183
REMARK   75  A    between atoms: _192  and  _194
REMARK   76  A    between atoms: _194  and  _195
REMARK   77  A    between atoms: _194  and  _197
REMARK   78  A    between atoms: _197  and  _198
REMARK   79  A    between atoms: _201  and  _203
REMARK   80  A    between atoms: _203  and  _204
REMARK   81  A    between atoms: _203  and  _206
REMARK   82  A    between atoms: _206  and  _207
REMARK   83  A    between atoms: _207  and  _208
REMARK   84  A    between atoms: _208  and  _209
REMARK   85  A    between atoms: _209  and  _210
REMARK   86  A    between atoms: _214  and  _216
REMARK   87  A    between atoms: _216  and  _217
REMARK   88  A    between atoms: _216  and  _219
REMARK   89  A    between atoms: _219  and  _220
REMARK   90  A    between atoms: _220  and  _221
REMARK   91  A    between atoms: _226  and  _228
REMARK   92  A    between atoms: _228  and  _229
REMARK   93  A    between atoms: _228  and  _231
REMARK   94  A    between atoms: _231  and  _232
REMARK   95  A    between atoms: _232  and  _233
REMARK   96  A    between atoms: _233  and  _234
REMARK   97  A    between atoms: _243  and  _245
REMARK   98  A    between atoms: _245  and  _246
REMARK   99  A    between atoms: _245  and  _248
REMARK  100  A    between atoms: _248  and  _249
REMARK  101  A    between atoms: _252  and  _254
REMARK  102  A    between atoms: _254  and  _255
REMARK  103  A    between atoms: _254  and  _257
REMARK  104  A    between atoms: _257  and  _258
REMARK  105  A    between atoms: _258  and  _259
REMARK  106  A    between atoms: _264  and  _266
REMARK  107  A    between atoms: _266  and  _267
REMARK  108  A    between atoms: _266  and  _269
REMARK  109  A    between atoms: _269  and  _270
REMARK  110  A    between atoms: _273  and  _275
REMARK  111  A    between atoms: _275  and  _276
REMARK  112  A    between atoms: _275  and  _278
REMARK  113  A    between atoms: _278  and  _279
REMARK  114  A    between atoms: _279  and  _280
REMARK  115  A    between atoms: _285  and  _287
REMARK  116  A    between atoms: _287  and  _288
REMARK  117  A    between atoms: _287  and  _290
REMARK  118  A    between atoms: _290  and  _291
REMARK  119  A    between atoms: _294  and  _296
REMARK  120  A    between atoms: _296  and  _297
REMARK  121  A    between atoms: _296  and  _299
REMARK  122  A    between atoms: _299  and  _300
REMARK  123  A    between atoms: _306  and  _308
REMARK  124  A    between atoms: _308  and  _309
REMARK  125  A    between atoms: _308  and  _311
REMARK  126  A    between atoms: _311  and  _312
REMARK  127  A    between atoms: _315  and  _317
REMARK  128  A    between atoms: _317  and  _318
REMARK  129  A    between atoms: _317  and  _320
REMARK  130  A    between atoms: _323  and  _325
REMARK  131  A    between atoms: _325  and  _326
REMARK  132  A    between atoms: _325  and  _328
REMARK  133  A    between atoms: _328  and  _329
REMARK  134  A    between atoms: _334  and  _336
REMARK  135  A    between atoms: _347  and  _350
REMARK  136  A    between atoms: _350  and  _351
REMARK  137  A    between atoms: _351  and  _352
REMARK  138  A    between atoms: _357  and  _360
REMARK  139  A    between atoms: _360  and  _361
REMARK  140  A    between atoms: _371  and  _372
REMARK  141  A    between atoms: _380  and  _382
REMARK  142  A    between atoms: _382  and  _383
REMARK  143  A    between atoms: _382  and  _385
REMARK  144  A    between atoms: _385  and  _386
REMARK  145  A    between atoms: _389  and  _391
REMARK  146  A    between atoms: _391  and  _392
REMARK  147  A    between atoms: _391  and  _394
REMARK  148  A    between atoms: _394  and  _395
REMARK  149  A    between atoms: _400  and  _401
REMARK  150  A    between atoms: _403  and  _405
REMARK  151  A    between atoms: _405  and  _406
REMARK  152  A    between atoms: _405  and  _408
REMARK  153  A    between atoms: _408  and  _409
REMARK  154  A    between atoms: _415  and  _417
REMARK  155  A    between atoms: _417  and  _418
REMARK  156  A    between atoms: _417  and  _420
REMARK  157  A    between atoms: _420  and  _421
REMARK  158  A    between atoms: _426  and  _427
REMARK  159  A    between atoms: _429  and  _431
REMARK  160  A    between atoms: _431  and  _432
REMARK  161  A    between atoms: _431  and  _434
REMARK  162  A    between atoms: _434  and  _435
REMARK  163  A    between atoms: _435  and  _436
REMARK  164  A    between atoms: _436  and  _437
REMARK  165  A    between atoms: _446  and  _448
REMARK  166  A    between atoms: _448  and  _449
REMARK  167  A    between atoms: _448  and  _451
REMARK  168  A    between atoms: _451  and  _452
REMARK  169  A    between atoms: _455  and  _457
REMARK  170  A    between atoms: _457  and  _458
REMARK  171  A    between atoms: _460  and  _462
REMARK  172  A    between atoms: _462  and  _463
REMARK  173  A    between atoms: _462  and  _465
REMARK  174  A    between atoms: _465  and  _466
REMARK  175  A    between atoms: _472  and  _473
REMARK  176  A    between atoms: _478  and  _480
REMARK  177  A    between atoms: _480  and  _481
REMARK  178  A    between atoms: _483  and  _485
REMARK  179  A    between atoms: _485  and  _486
REMARK  180  A    between atoms: _485  and  _488
REMARK  181  A    between atoms: _488  and  _489
REMARK  182  A    between atoms: _495  and  _497
REMARK  183  A    between atoms: _497  and  _498
REMARK  184  A    between atoms: _497  and  _500
REMARK  185  A    between atoms: _500  and  _501
REMARK  186  A    between atoms: _506  and  _508
REMARK  187  A    between atoms: _508  and  _509
REMARK  188  A    between atoms: _508  and  _511
REMARK  189  A    between atoms: _511  and  _512
REMARK  190  A    between atoms: _512  and  _513
REMARK  191  A    between atoms: _513  and  _514
REMARK  192  A    between atoms: _514  and  ZN_788
REMARK  193  A    between atoms: _516  and  _518
REMARK  194  A    between atoms: _518  and  _519
REMARK  195  A    between atoms: _522  and  _524
REMARK  196  A    between atoms: _524  and  _525
REMARK  197  A    between atoms: _527  and  _529
REMARK  198  A    between atoms: _529  and  _530
REMARK  199  A    between atoms: _529  and  _532
REMARK  200  A    between atoms: _532  and  _533
REMARK  201  A    between atoms: _536  and  _538
REMARK  202  A    between atoms: _538  and  _539
REMARK  203  A    between atoms: _538  and  _541
REMARK  204  A    between atoms: _544  and  _546
REMARK  205  A    between atoms: _546  and  _547
REMARK  206  A    between atoms: _546  and  _549
REMARK  207  A    between atoms: _549  and  _550
REMARK  208  A    between atoms: _552  and  _554
REMARK  209  A    between atoms: _554  and  _555
REMARK  210  A    between atoms: _554  and  _557
REMARK  211  A    between atoms: _557  and  _558
REMARK  212  A    between atoms: _561  and  _563
REMARK  213  A    between atoms: _563  and  _564
REMARK  214  A    between atoms: _563  and  _566
REMARK  215  A    between atoms: _566  and  _567
REMARK  216  A    between atoms: _570  and  _572
REMARK  217  A    between atoms: _572  and  _573
REMARK  218  A    between atoms: _572  and  _575
REMARK  219  A    between atoms: _575  and  _576
REMARK  220  A    between atoms: _576  and  _577
REMARK  221  A    between atoms: _577  and  _578
REMARK  222  A    between atoms: _578  and  _579
REMARK  223  A    between atoms: _583  and  _585
REMARK  224  A    between atoms: _585  and  _586
REMARK  225  A    between atoms: _585  and  _588
REMARK  226  A    between atoms: _588  and  _589
REMARK  227  A    between atoms: _595  and  _597
REMARK  228  A    between atoms: _597  and  _598
REMARK  229  A    between atoms: _597  and  _600
REMARK  230  A    between atoms: _600  and  _601
REMARK  231  A    between atoms: _607  and  _609
REMARK  232  A    between atoms: _609  and  _610
REMARK  233  A    between atoms: _613  and  _615
REMARK  234  A    between atoms: _615  and  _616
REMARK  235  A    between atoms: _615  and  _618
REMARK  236  A    between atoms: _618  and  _619
REMARK  237  A    between atoms: _619  and  _620
REMARK  238  A    between atoms: _622  and  _624
REMARK  239  A    between atoms: _624  and  _625
REMARK  240  A    between atoms: _624  and  _627
REMARK  241  A    between atoms: _627  and  _628
REMARK  242  A    between atoms: _628  and  _629
REMARK  243  A    between atoms: _629  and  _630
REMARK  244  A    between atoms: _630  and  _631
REMARK  245  A    between atoms: _635  and  _637
REMARK  246  A    between atoms: _637  and  _638
REMARK  247  A    between atoms: _637  and  _640
REMARK  248  A    between atoms: _640  and  _641
REMARK  249  A    between atoms: _646  and  _647
REMARK  250  A    between atoms: _649  and  _651
REMARK  251  A    between atoms: _651  and  _652
REMARK  252  A    between atoms: _651  and  _654
REMARK  253  A    between atoms: _654  and  _655
REMARK  254  A    between atoms: _660  and  _662
REMARK  255  A    between atoms: _662  and  _663
REMARK  256  A    between atoms: _662  and  _665
REMARK  257  A    between atoms: _665  and  _666
REMARK  258  A    between atoms: _669  and  _671
REMARK  259  A    between atoms: _671  and  _672
REMARK  260  A    between atoms: _675  and  _677
REMARK  261  A    between atoms: _677  and  _678
REMARK  262  A    between atoms: _677  and  _680
REMARK  263  A    between atoms: _680  and  _681
REMARK  264  A    between atoms: _684  and  _686
REMARK  265  A    between atoms: _686  and  _687
REMARK  266  A    between atoms: _686  and  _689
REMARK  267  A    between atoms: _692  and  _694
REMARK  268  A    between atoms: _694  and  _695
REMARK  269  A    between atoms: _694  and  _697
REMARK  270  A    between atoms: _697  and  _698
REMARK  271  A    between atoms: _698  and  _699
REMARK  272  A    between atoms: _702  and  _704
REMARK  273  A    between atoms: _704  and  _705
REMARK  274  A    between atoms: _704  and  _707
REMARK  275  A    between atoms: _707  and  _708
REMARK  276  A    between atoms: _713  and  _714
REMARK  277  A    between atoms: _716  and  _718
REMARK  278  A    between atoms: _718  and  _719
REMARK  279  A    between atoms: _718  and  _721
REMARK  280  A    between atoms: _721  and  _722
REMARK  281  A    between atoms: _722  and  _723
REMARK  282  A    between atoms: _723  and  _724
REMARK  283  A    between atoms: _733  and  _735
REMARK  284  A    between atoms: _735  and  _736
REMARK  285  A    between atoms: _735  and  _738
REMARK  286  A    between atoms: _738  and  _739
REMARK  287  A    between atoms: _744  and  _745
REMARK  288  A    between atoms: _747  and  _749
REMARK  289  A    between atoms: _749  and  _750
REMARK  290  A    between atoms: _749  and  _752
REMARK  291  A    between atoms: _752  and  _753
REMARK  292  A    between atoms: _756  and  _758
REMARK  293  A    between atoms: _758  and  _759
REMARK  294  A    between atoms: _758  and  _761
REMARK  295  A    between atoms: _761  and  _762
REMARK  296  A    between atoms: _764  and  _766
REMARK  297  A    between atoms: _766  and  _767
REMARK  298  A    between atoms: _766  and  _769
REMARK  299  A    between atoms: _769  and  _770
REMARK  300  A    between atoms: _776  and  _778
REMARK  301  A    between atoms: _778  and  _779
REMARK  302  A    between atoms: _778  and  _781
REMARK  303  A    between atoms: _781  and  _782
REMARK  304  A    between atoms: _782  and  _783
REMARK                            x       y       z     vdW  Elec       q    Type
REMARK                         _______ _______ _______ _____ _____    ______ ____
ROOT
ATOM      1  NE  ARG A   1      23.563   9.908 -32.044  0.00  0.00    -0.265 N 
ATOM      2  HE  ARG A   1      23.588   8.871 -32.116  0.00  0.00    +0.259 HD
ATOM      3  CZ  ARG A   1      24.283  10.600 -32.927  0.00  0.00    +0.342 C 
ATOM      4  NH2 ARG A   1      24.334  11.929 -32.901  0.00  0.00    -0.292 N 
ATOM      5 HH21 ARG A   1      23.803  12.456 -32.178  0.00  0.00    +0.255 HD
ATOM      6 HH22 ARG A   1      24.905  12.441 -33.603  0.00  0.00    +0.255 HD
ATOM      7  NH1 ARG A   1      24.973   9.951 -33.855  0.00  0.00    -0.292 N 
ATOM      8 HH11 ARG A   1      24.949   8.912 -33.889  0.00  0.00    +0.255 HD
ATOM      9 HH12 ARG A   1      25.538  10.481 -34.549  0.00  0.00    +0.255 HD
ENDROOT
BRANCH   1  10
ATOM     10  CD  ARG A   1      22.741  10.486 -30.983  0.00  0.00    +0.174 C 
BRANCH  10  11
ATOM     11  CG  ARG A   1      21.259  10.418 -31.316  0.00  0.00    +0.045 C 
BRANCH  11  12
ATOM     12  CB  ARG A   1      20.883  11.399 -32.413  0.00  0.00    +0.029 C 
BRANCH  12  13
ATOM     13  CA  ARG A   1      19.515  11.132 -33.042  0.00  0.00    +0.133 C 
BRANCH  13  14
ATOM     14  N   ARG A   1      19.536   9.929 -33.872  0.00  0.00    -0.239 NA
ATOM     15  H   ARG A   1      20.149   9.924 -34.712  0.00  0.00    +0.142 HD
ENDBRANCH  13  14
BRANCH  13  16
ATOM     16  C   ARG A   1      19.141  12.301 -33.921  0.00  0.00    +0.224 C 
ATOM     17  O   ARG A   1      19.341  12.250 -35.140  0.00  0.00    -0.287 OA
ENDBRANCH  13  16
ENDBRANCH  12  13
ENDBRANCH  11  12
ENDBRANCH  10  11
ENDBRANCH   1  10
TORSDOF 6
REMARK  Name = ../refined-set-2016/4ca8/4ca8_pocket.pdb
REMARK  304 active torsions:
REMARK  status: ('A' for Active; 'I' for Inactive)
REMARK    1  A    between atoms: _1  and  _3
REMARK    2  A    between atoms: _3  and  _4
REMARK    3  A    between atoms: _3  and  _6
REMARK    4  A    between atoms: _6  and  _7
REMARK    5  A    between atoms: _7  and  _8
REMARK    6  A    between atoms: _11  and  _13
REMARK    7  A    between atoms: _13  and  _14
REMARK    8  A    between atoms: _13  and  _16
REMARK    9  A    between atoms: _16  and  _17
REMARK   10  A    between atoms: _17  and  _18
REMARK   11  A    between atoms: _21  and  _23
REMARK   12  A    between atoms: _23  and  _24
REMARK   13  A    between atoms: _23  and  _26
REMARK   14  A    between atoms: _26  and  _27
REMARK   15  A    between atoms: _32  and  _34
REMARK   16  A    between atoms: _34  and  _35
REMARK   17  A    between atoms: _34  and  _37
REMARK   18  A    between atoms: _37  and  _38
REMARK   19  A    between atoms: _48  and  _50
REMARK   20  A    between atoms: _50  and  _51
REMARK   21  A    between atoms: _50  and  _53
REMARK   22  A    between atoms: _53  and  _54
REMARK   23  A    between atoms: _54  and  _55
REMARK   24  A    between atoms: _60  and  _62
REMARK   25  A    between atoms: _62  and  _63
REMARK   26  A    between atoms: _62  and  _65
REMARK   27  A    between atoms: _65  and  _66
REMARK   28  A    between atoms: _66  and  _67
REMARK   29  A    between atoms: _72  and  _74
REMARK   30  A    between atoms: _74  and  _75
REMARK   31  A    between atoms: _74  and  _77
REMARK   32  A    between atoms: _77  and  _78
REMARK   33  A    between atoms: _80  and  _82
REMARK   34  A    between atoms: _82  and  _83
REMARK   35  A    between atoms: _82  and  _85
REMARK   36  A    between atoms: _85  and  _86
REMARK   37  A    between atoms: _86  and  _87
REMARK   38  A    between atoms: _90  and  _92
REMARK   39  A    between atoms: _92  and  _93
REMARK   40  A    between atoms: _92  and  _95
REMARK   41  A    between atoms: _98  and  _100
REMARK   42  A    between atoms: _100  and  _101
REMARK   43  A    between atoms: _100  and  _103
REMARK   44  A    between atoms: _105  and  _107
REMARK   45  A    between atoms: _107  and  _108
REMARK   46  A    between atoms: _107  and  _110
REMARK   47  A    between atoms: _110  and  _111
REMARK   48  A    between atoms: _116  and  _118
REMARK   49  A    between atoms: _118  and  _119
REMARK   50  A    between atoms: _122  and  _124
REMARK   51  A    between atoms: _124  and  _125
REMARK   52  A    between atoms: _124  and  _127
REMARK   53  A    between atoms: _127  and  _128
REMARK   54  A    between atoms: _130  and  _132
REMARK   55  A    between atoms: _132  and  _133
REMARK   56  A    between atoms: _136  and  _138
REMARK   57  A    between atoms: _138  and  _139
REMARK   58  A    between atoms: _138  and  _141
REMARK   59  A    between atoms: _141  and  _142
REMARK   60  A    between atoms: _152  and  _154
REMARK   61  A    between atoms: _154  and  _155
REMARK   62  A    between atoms: _154  and  _157
REMARK   63  A    between atoms: _157  and  _158
REMARK   64  A    between atoms: _161  and  _163
REMARK   65  A    between atoms: _163  and  _164
REMARK   66  A    between atoms: _163  and  _166
REMARK   67  A    between atoms: _166  and  _167
REMARK   68  A    between atoms: _172  and  _173
REMARK   69  A    between atoms: _175  and  _177
REMARK   70  A    between atoms: _177  and  _178
REMARK   71  A    between atoms: _177  and  _180
REMARK   72  A    between atoms: _180  and  _181
REMARK   73  A    between atoms: _181  and  _182
REMARK   74  A    between atoms: _182  and  _183
REMARK   75  A    between atoms: _192  and  _194
REMARK   76  A    between atoms: _194  and  _195
REMARK   77  A    between atoms: _194  and  _197
REMARK   78  A    between atoms: _197  and  _198
REMARK   79  A    between atoms: _201  and  _203
REMARK   80  A    between atoms: _203  and  _204
REMARK   81  A    between atoms: _203  and  _206
REMARK   82  A    between atoms: _206  and  _207
REMARK   83  A    between atoms: _207  and  _208
REMARK   84  A    between atoms: _208  and  _209
REMARK   85  A    between atoms: _209  and  _210
REMARK   86  A    between atoms: _214  and  _216
REMARK   87  A    between atoms: _216  and  _217
REMARK   88  A    between atoms: _216  and  _219
REMARK   89  A    between atoms: _219  and  _220
REMARK   90  A    between atoms: _220  and  _221
REMARK   91  A    between atoms: _226  and  _228
REMARK   92  A    between atoms: _228  and  _229
REMARK   93  A    between atoms: _228  and  _231
REMARK   94  A    between atoms: _231  and  _232
REMARK   95  A    between atoms: _232  and  _233
REMARK   96  A    between atoms: _233  and  _234
REMARK   97  A    between atoms: _243  and  _245
REMARK   98  A    between atoms: _245  and  _246
REMARK   99  A    between atoms: _245  and  _248
REMARK  100  A    between atoms: _248  and  _249
REMARK  101  A    between atoms: _252  and  _254
REMARK  102  A    between atoms: _254  and  _255
REMARK  103  A    between atoms: _254  and  _257
REMARK  104  A    between atoms: _257  and  _258
REMARK  105  A    between atoms: _258  and  _259
REMARK  106  A    between atoms: _264  and  _266
REMARK  107  A    between atoms: _266  and  _267
REMARK  108  A    between atoms: _266  and  _269
REMARK  109  A    between atoms: _269  and  _270
REMARK  110  A    between atoms: _273  and  _275
REMARK  111  A    between atoms: _275  and  _276
REMARK  112  A    between atoms: _275  and  _278
REMARK  113  A    between atoms: _278  and  _279
REMARK  114  A    between atoms: _279  and  _280
REMARK  115  A    between atoms: _285  and  _287
REMARK  116  A    between atoms: _287  and  _288
REMARK  117  A    between atoms: _287  and  _290
REMARK  118  A    between atoms: _290  and  _291
REMARK  119  A    between atoms: _294  and  _296
REMARK  120  A    between atoms: _296  and  _297
REMARK  121  A    between atoms: _296  and  _299
REMARK  122  A    between atoms: _299  and  _300
REMARK  123  A    between atoms: _306  and  _308
REMARK  124  A    between atoms: _308  and  _309
REMARK  125  A    between atoms: _308  and  _311
REMARK  126  A    between atoms: _311  and  _312
REMARK  127  A    between atoms: _315  and  _317
REMARK  128  A    between atoms: _317  and  _318
REMARK  129  A    between atoms: _317  and  _320
REMARK  130  A    between atoms: _323  and  _325
REMARK  131  A    between atoms: _325  and  _326
REMARK  132  A    between atoms: _325  and  _328
REMARK  133  A    between atoms: _328  and  _329
REMARK  134  A    between atoms: _334  and  _336
REMARK  135  A    between atoms: _347  and  _350
REMARK  136  A    between atoms: _350  and  _351
REMARK  137  A    between atoms: _351  and  _352
REMARK  138  A    between atoms: _357  and  _360
REMARK  139  A    between atoms: _360  and  _361
REMARK  140  A    between atoms: _371  and  _372
REMARK  141  A    between atoms: _380  and  _382
REMARK  142  A    between atoms: _382  and  _383
REMARK  143  A    between atoms: _382  and  _385
REMARK  144  A    between atoms: _385  and  _386
REMARK  145  A    between atoms: _389  and  _391
REMARK  146  A    between atoms: _391  and  _392
REMARK  147  A    between atoms: _391  and  _394
REMARK  148  A    between atoms: _394  and  _395
REMARK  149  A    between atoms: _400  and  _401
REMARK  150  A    between atoms: _403  and  _405
REMARK  151  A    between atoms: _405  and  _406
REMARK  152  A    between atoms: _405  and  _408
REMARK  153  A    between atoms: _408  and  _409
REMARK  154  A    between atoms: _415  and  _417
REMARK  155  A    between atoms: _417  and  _418
REMARK  156  A    between atoms: _417  and  _420
REMARK  157  A    between atoms: _420  and  _421
REMARK  158  A    between atoms: _426  and  _427
REMARK  159  A    between atoms: _429  and  _431
REMARK  160  A    between atoms: _431  and  _432
REMARK  161  A    between atoms: _431  and  _434
REMARK  162  A    between atoms: _434  and  _435
REMARK  163  A    between atoms: _435  and  _436
REMARK  164  A    between atoms: _436  and  _437
REMARK  165  A    between atoms: _446  and  _448
REMARK  166  A    between atoms: _448  and  _449
REMARK  167  A    between atoms: _448  and  _451
REMARK  168  A    between atoms: _451  and  _452
REMARK  169  A    between atoms: _455  and  _457
REMARK  170  A    between atoms: _457  and  _458
REMARK  171  A    between atoms: _460  and  _462
REMARK  172  A    between atoms: _462  and  _463
REMARK  173  A    between atoms: _462  and  _465
REMARK  174  A    between atoms: _465  and  _466
REMARK  175  A    between atoms: _472  and  _473
REMARK  176  A    between atoms: _478  and  _480
REMARK  177  A    between atoms: _480  and  _481
REMARK  178  A    between atoms: _483  and  _485
REMARK  179  A    between atoms: _485  and  _486
REMARK  180  A    between atoms: _485  and  _488
REMARK  181  A    between atoms: _488  and  _489
REMARK  182  A    between atoms: _495  and  _497
REMARK  183  A    between atoms: _497  and  _498
REMARK  184  A    between atoms: _497  and  _500
REMARK  185  A    between atoms: _500  and  _501
REMARK  186  A    between atoms: _506  and  _508
REMARK  187  A    between atoms: _508  and  _509
REMARK  188  A    between atoms: _508  and  _511
REMARK  189  A    between atoms: _511  and  _512
REMARK  190  A    between atoms: _512  and  _513
REMARK  191  A    between atoms: _513  and  _514
REMARK  192  A    between atoms: _514  and  ZN_788
REMARK  193  A    between atoms: _516  and  _518
REMARK  194  A    between atoms: _518  and  _519
REMARK  195  A    between atoms: _522  and  _524
REMARK  196  A    between atoms: _524  and  _525
REMARK  197  A    between atoms: _527  and  _529
REMARK  198  A    between atoms: _529  and  _530
REMARK  199  A    between atoms: _529  and  _532
REMARK  200  A    between atoms: _532  and  _533
REMARK  201  A    between atoms: _536  and  _538
REMARK  202  A    between atoms: _538  and  _539
REMARK  203  A    between atoms: _538  and  _541
REMARK  204  A    between atoms: _544  and  _546
REMARK  205  A    between atoms: _546  and  _547
REMARK  206  A    between atoms: _546  and  _549
REMARK  207  A    between atoms: _549  and  _550
REMARK  208  A    between atoms: _552  and  _554
REMARK  209  A    between atoms: _554  and  _555
REMARK  210  A    between atoms: _554  and  _557
REMARK  211  A    between atoms: _557  and  _558
REMARK  212  A    between atoms: _561  and  _563
REMARK  213  A    between atoms: _563  and  _564
REMARK  214  A    between atoms: _563  and  _566
REMARK  215  A    between atoms: _566  and  _567
REMARK  216  A    between atoms: _570  and  _572
REMARK  217  A    between atoms: _572  and  _573
REMARK  218  A    between atoms: _572  and  _575
REMARK  219  A    between atoms: _575  and  _576
REMARK  220  A    between atoms: _576  and  _577
REMARK  221  A    between atoms: _577  and  _578
REMARK  222  A    between atoms: _578  and  _579
REMARK  223  A    between atoms: _583  and  _585
REMARK  224  A    between atoms: _585  and  _586
REMARK  225  A    between atoms: _585  and  _588
REMARK  226  A    between atoms: _588  and  _589
REMARK  227  A    between atoms: _595  and  _597
REMARK  228  A    between atoms: _597  and  _598
REMARK  229  A    between atoms: _597  and  _600
REMARK  230  A    between atoms: _600  and  _601
REMARK  231  A    between atoms: _607  and  _609
REMARK  232  A    between atoms: _609  and  _610
REMARK  233  A    between atoms: _613  and  _615
REMARK  234  A    between atoms: _615  and  _616
REMARK  235  A    between atoms: _615  and  _618
REMARK  236  A    between atoms: _618  and  _619
REMARK  237  A    between atoms: _619  and  _620
REMARK  238  A    between atoms: _622  and  _624
REMARK  239  A    between atoms: _624  and  _625
REMARK  240  A    between atoms: _624  and  _627
REMARK  241  A    between atoms: _627  and  _628
REMARK  242  A    between atoms: _628  and  _629
REMARK  243  A    between atoms: _629  and  _630
REMARK  244  A    between atoms: _630  and  _631
REMARK  245  A    between atoms: _635  and  _637
REMARK  246  A    between atoms: _637  and  _638
REMARK  247  A    between atoms: _637  and  _640
REMARK  248  A    between atoms: _640  and  _641
REMARK  249  A    between atoms: _646  and  _647
REMARK  250  A    between atoms: _649  and  _651
REMARK  251  A    between atoms: _651  and  _652
REMARK  252  A    between atoms: _651  and  _654
REMARK  253  A    between atoms: _654  and  _655
REMARK  254  A    between atoms: _660  and  _662
REMARK  255  A    between atoms: _662  and  _663
REMARK  256  A    between atoms: _662  and  _665
REMARK  257  A    between atoms: _665  and  _666
REMARK  258  A    between atoms: _669  and  _671
REMARK  259  A    between atoms: _671  and  _672
REMARK  260  A    between atoms: _675  and  _677
REMARK  261  A    between atoms: _677  and  _678
REMARK  262  A    between atoms: _677  and  _680
REMARK  263  A    between atoms: _680  and  _681
REMARK  264  A    between atoms: _684  and  _686
REMARK  265  A    between atoms: _686  and  _687
REMARK  266  A    between atoms: _686  and  _689
REMARK  267  A    between atoms: _692  and  _694
REMARK  268  A    between atoms: _694  and  _695
REMARK  269  A    between atoms: _694  and  _697
REMARK  270  A    between atoms: _697  and  _698
REMARK  271  A    between atoms: _698  and  _699
REMARK  272  A    between atoms: _702  and  _704
REMARK  273  A    between atoms: _704  and  _705
REMARK  274  A    between atoms: _704  and  _707
REMARK  275  A    between atoms: _707  and  _708
REMARK  276  A    between atoms: _713  and  _714
REMARK  277  A    between atoms: _716  and  _718
REMARK  278  A    between atoms: _718  and  _719
REMARK  279  A    between atoms: _718  and  _721
REMARK  280  A    between atoms: _721  and  _722
REMARK  281  A    between atoms: _722  and  _723
REMARK  282  A    between atoms: _723  and  _724
REMARK  283  A    between atoms: _733  and  _735
REMARK  284  A    between atoms: _735  and  _736
REMARK  285  A    between atoms: _735  and  _738
REMARK  286  A    between atoms: _738  and  _739
REMARK  287  A    between atoms: _744  and  _745
REMARK  288  A    between atoms: _747  and  _749
REMARK  289  A    between atoms: _749  and  _750
REMARK  290  A    between atoms: _749  and  _752
REMARK  291  A    between atoms: _752  and  _753
REMARK  292  A    between atoms: _756  and  _758
REMARK  293  A    between atoms: _758  and  _759
REMARK  294  A    between atoms: _758  and  _761
REMARK  295  A    between atoms: _761  and  _762
REMARK  296  A    between atoms: _764  and  _766
REMARK  297  A    between atoms: _766  and  _767
REMARK  298  A    between atoms: _766  and  _769
REMARK  299  A    between atoms: _769  and  _770
REMARK  300  A    between atoms: _776  and  _778
REMARK  301  A    between atoms: _778  and  _779
REMARK  302  A    between atoms: _778  and  _781
REMARK  303  A    between atoms: _781  and  _782
REMARK  304  A    between atoms: _782  and  _783
REMARK                            x       y       z     vdW  Elec       q    Type
REMARK                         _______ _______ _______ _____ _____    ______ ____
ROOT
ATOM      1  C   UNK A  10      22.635   7.421 -46.892  0.00  0.00    +0.000 C 
ATOM      2  C   UNK A  10      23.931   7.475 -46.067  0.00  0.00    +0.000 C 
ATOM      3  C   UNK A  10      24.859   6.332 -46.343  0.00  0.00    +0.000 A 
ATOM      4  C   UNK A  10      24.873   5.060 -45.877  0.00  0.00    +0.000 A 
ATOM      5  N   UNK A  10      25.930   4.419 -46.478  0.00  0.00    +0.000 N 
ATOM      6 ZN   UNK A  10      26.398   2.453 -46.303  0.00  0.00    +0.000 Zn
ATOM      7  N   UNK A  10      24.841   1.464 -47.340  0.00  0.00    +0.000 N 
ATOM      8  C   UNK A  10      23.512   1.401 -47.007  0.00  0.00    +0.000 A 
ATOM      9  C   UNK A  10      22.836   1.060 -48.127  0.00  0.00    +0.000 A 
ATOM     10  C   UNK A  10      21.381   0.794 -48.345  0.00  0.00    +0.000 C 
ATOM     11  C   UNK A  10      20.837   1.302 -49.679  0.00  0.00    +0.000 C 
ATOM     12  N   UNK A  10      20.698   2.750 -49.689  0.00  0.00    +0.000 N 
ATOM     13  H   UNK A  10      20.919   3.287 -48.826  0.00  0.00    +0.000 HD
ATOM     14  C   GLY A  13      20.295   3.404 -50.777  0.00  0.00    +0.000 C 
ATOM     15  CA  GLY A  13      20.067   4.901 -50.614  0.00  0.00    +0.000 C 
ATOM     16  N   GLY A  13      19.431   5.209 -49.331  0.00  0.00    +0.000 N 
ATOM     17  H   GLY A  13      19.961   5.760 -48.626  0.00  0.00    +0.000 HD
ATOM     18  C   LEU A  12      18.195   4.806 -49.038  0.00  0.00    +0.000 C 
ATOM     19  CA  LEU A  12      17.744   4.969 -47.586  0.00  0.00    +0.000 C 
ATOM     20  N   LEU A  12      18.877   5.108 -46.674  0.00  0.00    +0.000 N 
ATOM     21  H   LEU A  12      19.040   6.020 -46.202  0.00  0.00    +0.000 HD
ATOM     22  C   GLU A  11      19.706   4.095 -46.433  0.00  0.00    +0.000 C 
ATOM     23  CA  GLU A  11      20.863   4.360 -45.486  0.00  0.00    +0.000 C 
ATOM     24  N   GLU A  11      21.443   5.676 -45.694  0.00  0.00    +0.000 N 
ATOM     25  H   GLU A  11      21.404   6.371 -44.922  0.00  0.00    +0.000 HD
ATOM     26  O   GLU A  11      19.552   2.978 -46.906  0.00  0.00    +0.000 OA
ATOM     27  O   LEU A  12      17.424   4.323 -49.878  0.00  0.00    +0.000 OA
ATOM     28  O   GLY A  13      20.089   2.846 -51.860  0.00  0.00    +0.000 OA
ATOM     29  N   UNK A  10      23.785   0.918 -49.114  0.00  0.00    +0.000 NA
ATOM     30  C   UNK A  10      24.978   1.187 -48.624  0.00  0.00    +0.000 A 
ATOM     31  C   UNK A  10      26.543   5.267 -47.282  0.00  0.00    +0.000 A 
ATOM     32  N   UNK A  10      25.909   6.425 -47.228  0.00  0.00    +0.000 NA
ATOM     33  C   UNK A  10      22.022   6.019 -46.842  0.00  0.00    +0.000 C 
ATOM     34  O   UNK A  10      22.065   5.278 -47.833  0.00  0.00    +0.000 OA
ENDROOT
BRANCH   1  36
ATOM     35  C   HIS A   9      20.505   8.564 -47.104  0.00  0.00    +0.000 C 
ATOM     36  N   UNK A  10      21.657   8.408 -46.449  0.00  0.00    +0.000 N 
ATOM     37  H   UNK A  10      21.859   8.996 -45.615  0.00  0.00    +0.000 HD
ATOM     38  O   HIS A   9      20.221   7.924 -48.130  0.00  0.00    +0.000 OA
BRANCH  35  39
ATOM     39  CA  HIS A   9      19.522   9.581 -46.528  0.00  0.00    +0.000 C 
BRANCH  39  42
ATOM     40  C   VAL A   8      19.144   8.558 -44.339  0.00  0.00    +0.000 C 
ATOM     41  O   VAL A   8      18.724   7.525 -44.838  0.00  0.00    +0.000 OA
ATOM     42  N   HIS A   9      19.543   9.602 -45.061  0.00  0.00    +0.000 N 
ATOM     43  H   HIS A   9      19.879  10.456 -44.572  0.00  0.00    +0.000 HD
BRANCH  40  44
ATOM     44  CA  VAL A   8      19.253   8.671 -42.809  0.00  0.00    +0.000 C 
BRANCH  44  46
ATOM     45  C   ALA A   7      21.681   8.601 -42.872  0.00  0.00    +0.000 C 
ATOM     46  N   VAL A   8      20.570   9.185 -42.425  0.00  0.00    +0.000 N 
ATOM     47  H   VAL A   8      20.638  10.012 -41.799  0.00  0.00    +0.000 HD
ATOM     48  O   ALA A   7      21.656   7.597 -43.592  0.00  0.00    +0.000 OA
BRANCH  45  49
ATOM     49  CA  ALA A   7      23.020   9.227 -42.464  0.00  0.00    +0.000 C 
BRANCH  49  51
ATOM     50  C   UNK A   6      22.712  11.222 -43.847  0.00  0.00    +0.000 C 
ATOM     51  N   ALA A   7      23.025  10.667 -42.680  0.00  0.00    +0.000 N 
ATOM     52  H   ALA A   7      23.285  11.288 -41.887  0.00  0.00    +0.000 HD
ATOM     53  O   UNK A   6      22.540  10.582 -44.886  0.00  0.00    +0.000 OA
BRANCH  50  54
ATOM     54  C   UNK A   6      22.622  12.735 -43.853  0.00  0.00    +0.000 C 
BRANCH  54  56
ATOM     55  C   HIS A   5      20.554  13.014 -42.589  0.00  0.00    +0.000 C 
ATOM     56  N   UNK A   6      21.865  13.201 -42.699  0.00  0.00    +0.000 N 
ATOM     57  H   UNK A   6      22.368  13.697 -41.935  0.00  0.00    +0.000 HD
ATOM     58  O   HIS A   5      19.868  12.475 -43.468  0.00  0.00    +0.000 OA
BRANCH  55  59
ATOM     59  CA  HIS A   5      19.921  13.512 -41.295  0.00  0.00    +0.000 C 
BRANCH  59  62
ATOM     60  C   PHE A   4      21.169  12.130 -39.734  0.00  0.00    +0.000 C 
ATOM     61  O   PHE A   4      20.675  11.101 -40.175  0.00  0.00    +0.000 OA
ATOM     62  N   HIS A   5      20.845  13.338 -40.185  0.00  0.00    +0.000 N 
ATOM     63  H   HIS A   5      21.262  14.177 -39.734  0.00  0.00    +0.000 HD
BRANCH  60  64
ATOM     64  CA  PHE A   4      22.207  12.057 -38.621  0.00  0.00    +0.000 C 
BRANCH  64  66
ATOM     65  C   GLY A   3      24.003  13.394 -39.615  0.00  0.00    +0.000 C 
ATOM     66  N   PHE A   4      23.146  13.185 -38.616  0.00  0.00    +0.000 N 
ATOM     67  H   PHE A   4      23.142  13.841 -37.809  0.00  0.00    +0.000 HD
ATOM     68  O   GLY A   3      24.068  12.673 -40.602  0.00  0.00    +0.000 OA
BRANCH  65  69
ATOM     69  CA  GLY A   3      24.913  14.619 -39.515  0.00  0.00    +0.000 C 
BRANCH  69  71
ATOM     70  C   PRO A   2      23.089  16.235 -39.650  0.00  0.00    +0.000 C 
ATOM     71  N   GLY A   3      24.170  15.781 -39.013  0.00  0.00    +0.000 N 
ATOM     72  H   GLY A   3      24.491  16.258 -38.147  0.00  0.00    +0.000 HD
ATOM     73  O   PRO A   2      22.642  15.703 -40.675  0.00  0.00    +0.000 OA
BRANCH  70  74
ATOM     74  CA  PRO A   2      22.384  17.455 -39.046  0.00  0.00    +0.000 C 
BRANCH  74  76
ATOM     75  C   ASN A   1      21.328  16.285 -37.165  0.00  0.00    +0.000 C 
ATOM     76  N   PRO A   2      22.123  17.251 -37.618  0.00  0.00    +0.000 N 
ATOM     77  H   PRO A   2      22.577  17.887 -36.932  0.00  0.00    +0.000 HD
ATOM     78  O   ASN A   1      20.726  15.495 -37.895  0.00  0.00    +0.000 OA
BRANCH  75  79
ATOM     79  CA  ASN A   1      21.195  16.192 -35.655  0.00  0.00    +0.000 C 
BRANCH  79  80
ATOM     80  CB  ASN A   1      22.553  15.697 -35.116  0.00  0.00    +0.000 C 
ATOM     81  CG2 ASN A   1      22.483  15.320 -33.640  0.00  0.00    +0.000 C 
BRANCH  80  82
ATOM     82  OG1 ASN A   1      23.002  14.577 -35.895  0.00  0.00    +0.000 OA
ATOM     83  HG1 ASN A   1      23.873  14.262 -35.546  0.00  0.00    +0.000 HD
ENDBRANCH  80  82
ENDBRANCH  79  80
BRANCH  79  84
ATOM     84  N   ASN A   1      20.086  15.311 -35.302  0.00  0.00    +0.000 NA
ATOM     85  H   ASN A   1      19.879  14.499 -35.917  0.00  0.00    +0.000 HD
ENDBRANCH  79  84
ENDBRANCH  75  79
ENDBRANCH  74  76
BRANCH  74  86
ATOM     86  CB  PRO A   2      23.204  18.740 -39.277  0.00  0.00    +0.000 C 
BRANCH  86  87
ATOM     87  CG  PRO A   2      23.687  18.933 -40.714  0.00  0.00    +0.000 C 
BRANCH  87  88
ATOM     88  CD  PRO A   2      24.161  20.350 -41.033  0.00  0.00    +0.000 C 
ATOM     89  OE1 PRO A   2      23.588  21.329 -40.574  0.00  0.00    +0.000 OA
ATOM     90  NE2 PRO A   2      25.198  20.458 -41.858  0.00  0.00    +0.000 N 
ATOM     91 HE21 PRO A   2      25.548  21.398 -42.133  0.00  0.00    +0.000 HD
ATOM     92 HE22 PRO A   2      25.660  19.603 -42.228  0.00  0.00    +0.000 HD
ENDBRANCH  87  88
ENDBRANCH  86  87
ENDBRANCH  74  86
ENDBRANCH  70  74
ENDBRANCH  69  71
BRANCH  69  93
ATOM     93  CB  GLY A   3      26.155  14.298 -38.658  0.00  0.00    +0.000 C 
BRANCH  93  94
ATOM     94  CG  GLY A   3      27.370  15.201 -38.986  0.00  0.00    +0.000 C 
ATOM     95  OD2 GLY A   3      28.407  15.087 -38.279  0.00  0.00    +0.000 OA
ATOM     96  OD1 GLY A   3      27.298  16.017 -39.943  0.00  0.00    +0.000 OA
ENDBRANCH  93  94
ENDBRANCH  69  93
ENDBRANCH  65  69
ENDBRANCH  64  66
BRANCH  64  97
ATOM     97  CB  PHE A   4      21.502  11.924 -37.277  0.00  0.00    +0.000 C 
BRANCH  97  98
ATOM     98  CG  PHE A   4      22.345  11.221 -36.225  0.00  0.00    +0.000 C 
BRANCH  98  99
ATOM     99  CD  PHE A   4      22.367   9.717 -36.406  0.00  0.00    +0.000 C 
ATOM    100  OE1 PHE A   4      21.418   9.033 -36.057  0.00  0.00    +0.000 OA
ATOM    101  NE2 PHE A   4      23.447   9.201 -36.972  0.00  0.00    +0.000 N 
ATOM    102 HE21 PHE A   4      23.509   8.176 -37.135  0.00  0.00    +0.000 HD
ATOM    103 HE22 PHE A   4      24.233   9.821 -37.254  0.00  0.00    +0.000 HD
ENDBRANCH  98  99
ENDBRANCH  97  98
ENDBRANCH  64  97
ENDBRANCH  60  64
ENDBRANCH  59  62
BRANCH  59 104
ATOM    104  CB  HIS A   5      19.512  14.986 -41.427  0.00  0.00    +0.000 C 
BRANCH 104 105
ATOM    105  CG  HIS A   5      18.480  15.352 -42.506  0.00  0.00    +0.000 C 
ATOM    106  CD2 HIS A   5      17.137  14.677 -42.266  0.00  0.00    +0.000 C 
ATOM    107  CD1 HIS A   5      18.308  16.861 -42.583  0.00  0.00    +0.000 C 
ENDBRANCH 104 105
ENDBRANCH  59 104
ENDBRANCH  55  59
ENDBRANCH  54  56
BRANCH  54 108
ATOM    108  C   UNK A   6      24.049  13.307 -43.851  0.00  0.00    +0.000 C 
BRANCH 108 109
ATOM    109  C   UNK A   6      24.127  14.807 -43.919  0.00  0.00    +0.000 A 
ATOM    110  C   UNK A   6      25.276  15.458 -43.474  0.00  0.00    +0.000 A 
ATOM    111  C   UNK A   6      25.390  16.831 -43.549  0.00  0.00    +0.000 A 
ATOM    112  C   UNK A   6      24.351  17.578 -44.070  0.00  0.00    +0.000 A 
ATOM    113  C   UNK A   6      23.211  16.946 -44.538  0.00  0.00    +0.000 A 
ATOM    114  C   UNK A   6      23.102  15.570 -44.471  0.00  0.00    +0.000 A 
ENDBRANCH 108 109
ENDBRANCH  54 108
ENDBRANCH  50  54
ENDBRANCH  49  51
BRANCH  49 115
ATOM    115  CB  ALA A   7      23.317   8.883 -40.987  0.00  0.00    +0.000 C 
ATOM    116  CG2 ALA A   7      23.365   7.395 -40.772  0.00  0.00    +0.000 C 
BRANCH 115 117
ATOM    117  OG1 ALA A   7      24.584   9.431 -40.615  0.00  0.00    +0.000 OA
ATOM    118  HG1 ALA A   7      24.773   9.210 -39.669  0.00  0.00    +0.000 HD
ENDBRANCH 115 117
ENDBRANCH  49 115
ENDBRANCH  45  49
ENDBRANCH  44  46
BRANCH  44 119
ATOM    119  CB  VAL A   8      18.094   9.515 -42.234  0.00  0.00    +0.000 C 
ATOM    120  CG2 VAL A   8      17.988   9.303 -40.719  0.00  0.00    +0.000 C 
ATOM    121  CG1 VAL A   8      16.773   9.167 -42.907  0.00  0.00    +0.000 C 
ENDBRANCH  44 119
ENDBRANCH  40  44
ENDBRANCH  39  42
BRANCH  39 122
ATOM    122  CB  HIS A   9      19.817  10.963 -47.099  0.00  0.00    +0.000 C 
BRANCH 122 123
ATOM    123  CG  HIS A   9      18.679  11.920 -46.955  0.00  0.00    +0.000 A 
ATOM    124  ND1 HIS A   9      18.382  12.546 -45.763  0.00  0.00    +0.000 NA
ATOM    125  CE1 HIS A   9      17.320  13.315 -45.927  0.00  0.00    +0.000 A 
ATOM    126  NE2 HIS A   9      16.913  13.201 -47.179  0.00  0.00    +0.000 NA
ATOM    127  CD2 HIS A   9      17.751  12.340 -47.847  0.00  0.00    +0.000 A 
ENDBRANCH 122 123
ENDBRANCH  39 122
ENDBRANCH  35  39
ENDBRANCH   1  36
BRANCH  11 128
ATOM    128  C   UNK A  10      19.465   0.668 -49.921  0.00  0.00    +0.000 C 
ATOM    129  N   ILE A  15      18.469   1.083 -49.136  0.00  0.00    +0.000 N 
ATOM    130  H   ILE A  15      18.665   1.801 -48.409  0.00  0.00    +0.000 HD
ATOM    131  O   UNK A  10      19.317  -0.166 -50.812  0.00  0.00    +0.000 OA
BRANCH 129 132
ATOM    132  CA  ILE A  15      17.108   0.557 -49.268  0.00  0.00    +0.000 C 
BRANCH 132 133
ATOM    133  C   ILE A  15      16.576   0.741 -50.701  0.00  0.00    +0.000 C 
ATOM    134  O   ILE A  15      15.931  -0.145 -51.242  0.00  0.00    +0.000 OA
ENDBRANCH 132 133
BRANCH 132 135
ATOM    135  CB  ILE A  15      16.120   1.234 -48.296  0.00  0.00    +0.000 C 
ATOM    136  CG2 ILE A  15      14.691   0.765 -48.575  0.00  0.00    +0.000 C 
BRANCH 135 137
ATOM    137  CG1 ILE A  15      16.520   1.010 -46.825  0.00  0.00    +0.000 C 
ATOM    138  CD1 ILE A  15      16.623  -0.439 -46.417  0.00  0.00    +0.000 C 
ENDBRANCH 135 137
ENDBRANCH 132 135
ENDBRANCH 129 132
ENDBRANCH  11 128
BRANCH  23 139
ATOM    139  CB  GLU A  11      20.349   4.184 -44.053  0.00  0.00    +0.000 C 
BRANCH 139 140
ATOM    140  CG  GLU A  11      21.384   4.372 -42.965  0.00  0.00    +0.000 C 
BRANCH 140 141
ATOM    141  CD  GLU A  11      22.592   3.479 -43.126  0.00  0.00    +0.000 C 
ATOM    142  OE2 GLU A  11      23.696   3.965 -42.846  0.00  0.00    +0.000 OA
ATOM    143  OE1 GLU A  11      22.445   2.299 -43.505  0.00  0.00    +0.000 OA
ENDBRANCH 140 141
ENDBRANCH 139 140
ENDBRANCH  23 139
BRANCH  19 144
ATOM    144  CB  LEU A  12      16.780   6.149 -47.447  0.00  0.00    +0.000 C 
BRANCH 144 145
ATOM    145  CG  LEU A  12      15.986   6.182 -46.135  0.00  0.00    +0.000 C 
ATOM    146  CD2 LEU A  12      15.043   4.992 -45.998  0.00  0.00    +0.000 C 
ATOM    147  CD1 LEU A  12      15.215   7.489 -46.039  0.00  0.00    +0.000 C 
ENDBRANCH 144 145
ENDBRANCH  19 144
BRANCH   6 148
ATOM    148  O   UNK A  10      27.845   2.465 -47.756  0.00  0.00    +0.000 OA
BRANCH 148 149
ATOM    149  C   UNK A  10      28.358   1.516 -48.357  0.00  0.00    +0.000 C 
ATOM    150  O   UNK A  10      28.110   0.326 -48.069  0.00  0.00    +0.000 OA
BRANCH 149 151
ATOM    151  C   UNK A  10      29.312   1.824 -49.498  0.00  0.00    +0.000 C 
BRANCH 151 152
ATOM    152  C   UNK A  10      29.033   3.165 -50.152  0.00  0.00    +0.000 C 
BRANCH 152 153
ATOM    153  C   UNK A  10      27.598   3.314 -50.663  0.00  0.00    +0.000 C 
BRANCH 153 154
ATOM    154  C   UNK A  10      27.352   4.729 -51.207  0.00  0.00    +0.000 C 
ATOM    155  O   UNK A  10      27.039   5.647 -50.437  0.00  0.00    +0.000 OA
ATOM    156  N   ALA A   7      27.463   4.884 -52.533  0.00  0.00    +0.000 N 
ATOM    157  H   ALA A   7      27.627   4.044 -53.124  0.00  0.00    +0.000 HD
BRANCH 156 158
ATOM    158  CA  ALA A   7      27.363   6.183 -53.176  0.00  0.00    +0.000 C 
ATOM    159  CB  ALA A   7      27.981   6.119 -54.566  0.00  0.00    +0.000 C 
BRANCH 158 160
ATOM    160  C   ALA A   7      25.942   6.737 -53.296  0.00  0.00    +0.000 C 
ATOM    161  O   ALA A   7      25.767   7.959 -53.278  0.00  0.00    +0.000 OA
ENDBRANCH 158 160
ENDBRANCH 156 158
ENDBRANCH 153 154
BRANCH 153 162
ATOM    162  N   UNK A  10      27.326   2.286 -51.660  0.00  0.00    +0.000 N 
ATOM    163  C   HIS A   5      26.083   1.969 -51.991  0.00  0.00    +0.000 C 
ATOM    164  O   HIS A   5      25.103   2.524 -51.494  0.00  0.00    +0.000 OA
ATOM    165  H   UNK A  10      28.119   1.794 -52.118  0.00  0.00    +0.000 HD
BRANCH 163 166
ATOM    166  CA  HIS A   5      25.917   0.852 -53.029  0.00  0.00    +0.000 C 
BRANCH 166 167
ATOM    167  N   HIS A   5      26.907   0.941 -54.097  0.00  0.00    +0.000 N 
ATOM    168  H   HIS A   5      27.557   0.148 -54.272  0.00  0.00    +0.000 HD
ATOM    169  C   PHE A   4      26.977   2.031 -54.842  0.00  0.00    +0.000 C 
ATOM    170  O   PHE A   4      26.249   2.999 -54.648  0.00  0.00    +0.000 OA
BRANCH 169 171
ATOM    171  CA  PHE A   4      28.008   2.036 -55.976  0.00  0.00    +0.000 C 
BRANCH 171 172
ATOM    172  N   PHE A   4      29.299   1.545 -55.502  0.00  0.00    +0.000 N 
ATOM    173  C   GLY A   3      29.918   2.119 -54.461  0.00  0.00    +0.000 C 
ATOM    174  O   GLY A   3      29.516   3.149 -53.941  0.00  0.00    +0.000 OA
ATOM    175  H   PHE A   4      29.746   0.737 -55.980  0.00  0.00    +0.000 HD
BRANCH 173 176
ATOM    176  CA  GLY A   3      31.201   1.483 -53.982  0.00  0.00    +0.000 C 
BRANCH 176 177
ATOM    177  N   GLY A   3      31.200   0.028 -53.973  0.00  0.00    +0.000 N 
ATOM    178  C   PRO A   2      30.392  -0.670 -53.168  0.00  0.00    +0.000 C 
ATOM    179  O   PRO A   2      29.615  -0.136 -52.364  0.00  0.00    +0.000 OA
ATOM    180  H   GLY A   3      31.845  -0.483 -54.610  0.00  0.00    +0.000 HD
BRANCH 178 181
ATOM    181  CA  PRO A   2      30.441  -2.203 -53.298  0.00  0.00    +0.000 C 
ATOM    182  CB  PRO A   2      31.567  -2.796 -52.463  0.00  0.00    +0.000 C 
ATOM    183  CG  PRO A   2      31.909  -4.057 -53.176  0.00  0.00    +0.000 C 
ATOM    184  CD  PRO A   2      31.834  -3.689 -54.632  0.00  0.00    +0.000 C 
ATOM    185  N   PRO A   2      30.775  -2.670 -54.658  0.00  0.00    +0.000 N 
ATOM    186  C   ASN A   1      30.026  -2.245 -55.682  0.00  0.00    +0.000 C 
ATOM    187  O   ASN A   1      29.096  -1.460 -55.536  0.00  0.00    +0.000 OA
BRANCH 186 188
ATOM    188  CA  ASN A   1      30.310  -2.821 -57.067  0.00  0.00    +0.000 C 
BRANCH 188 189
ATOM    189  N   ASN A   1      29.204  -2.431 -57.940  0.00  0.00    +0.000 NA
ATOM    190  H   ASN A   1      28.725  -1.523 -57.775  0.00  0.00    +0.000 HD
ENDBRANCH 188 189
BRANCH 188 191
ATOM    191  CB  ASN A   1      31.692  -2.455 -57.638  0.00  0.00    +0.000 C 
BRANCH 191 192
ATOM    192  CG  ASN A   1      31.992  -0.970 -57.650  0.00  0.00    +0.000 C 
ATOM    193  OD1 ASN A   1      31.786  -0.265 -56.675  0.00  0.00    +0.000 OA
ATOM    194  ND2 ASN A   1      32.558  -0.504 -58.754  0.00  0.00    +0.000 N 
ATOM    195 HD21 ASN A   1      32.843   0.494 -58.810  0.00  0.00    +0.000 HD
ATOM    196 HD22 ASN A   1      32.717  -1.137 -59.564  0.00  0.00    +0.000 HD
ENDBRANCH 191 192
ENDBRANCH 188 191
ENDBRANCH 186 188
ENDBRANCH 178 181
ENDBRANCH 176 177
ENDBRANCH 173 176
ENDBRANCH 171 172
BRANCH 171 197
ATOM    197  CB  PHE A   4      27.491   1.190 -57.129  0.00  0.00    +0.000 C 
BRANCH 197 198
ATOM    198  CG  PHE A   4      28.097   1.544 -58.467  0.00  0.00    +0.000 A 
ATOM    199  CD2 PHE A   4      29.471   1.558 -58.652  0.00  0.00    +0.000 A 
ATOM    200  CE2 PHE A   4      30.021   1.860 -59.886  0.00  0.00    +0.000 A 
ATOM    201  CZ  PHE A   4      29.193   2.151 -60.955  0.00  0.00    +0.000 A 
ATOM    202  CE1 PHE A   4      27.827   2.146 -60.785  0.00  0.00    +0.000 A 
ATOM    203  CD1 PHE A   4      27.282   1.837 -59.550  0.00  0.00    +0.000 A 
ENDBRANCH 197 198
ENDBRANCH 171 197
ENDBRANCH 169 171
ENDBRANCH 166 167
BRANCH 166 204
ATOM    204  CB  HIS A   5      25.975  -0.506 -52.330  0.00  0.00    +0.000 C 
BRANCH 204 205
ATOM    205  CG  HIS A   5      24.648  -1.181 -52.235  0.00  0.00    +0.000 A 
ATOM    206  CD2 HIS A   5      23.511  -0.829 -51.600  0.00  0.00    +0.000 A 
ATOM    207  NE2 HIS A   5      22.587  -1.809 -51.853  0.00  0.00    +0.000 NA
ATOM    208  CE1 HIS A   5      23.131  -2.721 -52.633  0.00  0.00    +0.000 A 
ATOM    209  ND1 HIS A   5      24.368  -2.358 -52.894  0.00  0.00    +0.000 NA
ENDBRANCH 204 205
ENDBRANCH 166 204
ENDBRANCH 163 166
ENDBRANCH 153 162
ENDBRANCH 152 153
ENDBRANCH 151 152
ENDBRANCH 149 151
ENDBRANCH 148 149
ENDBRANCH   6 148
TORSDOF 72
REMARK  Name = ../refined-set-2016/4ca8/4ca8_pocket.pdb
REMARK  304 active torsions:
REMARK  status: ('A' for Active; 'I' for Inactive)
REMARK    1  A    between atoms: _1  and  _3
REMARK    2  A    between atoms: _3  and  _4
REMARK    3  A    between atoms: _3  and  _6
REMARK    4  A    between atoms: _6  and  _7
REMARK    5  A    between atoms: _7  and  _8
REMARK    6  A    between atoms: _11  and  _13
REMARK    7  A    between atoms: _13  and  _14
REMARK    8  A    between atoms: _13  and  _16
REMARK    9  A    between atoms: _16  and  _17
REMARK   10  A    between atoms: _17  and  _18
REMARK   11  A    between atoms: _21  and  _23
REMARK   12  A    between atoms: _23  and  _24
REMARK   13  A    between atoms: _23  and  _26
REMARK   14  A    between atoms: _26  and  _27
REMARK   15  A    between atoms: _32  and  _34
REMARK   16  A    between atoms: _34  and  _35
REMARK   17  A    between atoms: _34  and  _37
REMARK   18  A    between atoms: _37  and  _38
REMARK   19  A    between atoms: _48  and  _50
REMARK   20  A    between atoms: _50  and  _51
REMARK   21  A    between atoms: _50  and  _53
REMARK   22  A    between atoms: _53  and  _54
REMARK   23  A    between atoms: _54  and  _55
REMARK   24  A    between atoms: _60  and  _62
REMARK   25  A    between atoms: _62  and  _63
REMARK   26  A    between atoms: _62  and  _65
REMARK   27  A    between atoms: _65  and  _66
REMARK   28  A    between atoms: _66  and  _67
REMARK   29  A    between atoms: _72  and  _74
REMARK   30  A    between atoms: _74  and  _75
REMARK   31  A    between atoms: _74  and  _77
REMARK   32  A    between atoms: _77  and  _78
REMARK   33  A    between atoms: _80  and  _82
REMARK   34  A    between atoms: _82  and  _83
REMARK   35  A    between atoms: _82  and  _85
REMARK   36  A    between atoms: _85  and  _86
REMARK   37  A    between atoms: _86  and  _87
REMARK   38  A    between atoms: _90  and  _92
REMARK   39  A    between atoms: _92  and  _93
REMARK   40  A    between atoms: _92  and  _95
REMARK   41  A    between atoms: _98  and  _100
REMARK   42  A    between atoms: _100  and  _101
REMARK   43  A    between atoms: _100  and  _103
REMARK   44  A    between atoms: _105  and  _107
REMARK   45  A    between atoms: _107  and  _108
REMARK   46  A    between atoms: _107  and  _110
REMARK   47  A    between atoms: _110  and  _111
REMARK   48  A    between atoms: _116  and  _118
REMARK   49  A    between atoms: _118  and  _119
REMARK   50  A    between atoms: _122  and  _124
REMARK   51  A    between atoms: _124  and  _125
REMARK   52  A    between atoms: _124  and  _127
REMARK   53  A    between atoms: _127  and  _128
REMARK   54  A    between atoms: _130  and  _132
REMARK   55  A    between atoms: _132  and  _133
REMARK   56  A    between atoms: _136  and  _138
REMARK   57  A    between atoms: _138  and  _139
REMARK   58  A    between atoms: _138  and  _141
REMARK   59  A    between atoms: _141  and  _142
REMARK   60  A    between atoms: _152  and  _154
REMARK   61  A    between atoms: _154  and  _155
REMARK   62  A    between atoms: _154  and  _157
REMARK   63  A    between atoms: _157  and  _158
REMARK   64  A    between atoms: _161  and  _163
REMARK   65  A    between atoms: _163  and  _164
REMARK   66  A    between atoms: _163  and  _166
REMARK   67  A    between atoms: _166  and  _167
REMARK   68  A    between atoms: _172  and  _173
REMARK   69  A    between atoms: _175  and  _177
REMARK   70  A    between atoms: _177  and  _178
REMARK   71  A    between atoms: _177  and  _180
REMARK   72  A    between atoms: _180  and  _181
REMARK   73  A    between atoms: _181  and  _182
REMARK   74  A    between atoms: _182  and  _183
REMARK   75  A    between atoms: _192  and  _194
REMARK   76  A    between atoms: _194  and  _195
REMARK   77  A    between atoms: _194  and  _197
REMARK   78  A    between atoms: _197  and  _198
REMARK   79  A    between atoms: _201  and  _203
REMARK   80  A    between atoms: _203  and  _204
REMARK   81  A    between atoms: _203  and  _206
REMARK   82  A    between atoms: _206  and  _207
REMARK   83  A    between atoms: _207  and  _208
REMARK   84  A    between atoms: _208  and  _209
REMARK   85  A    between atoms: _209  and  _210
REMARK   86  A    between atoms: _214  and  _216
REMARK   87  A    between atoms: _216  and  _217
REMARK   88  A    between atoms: _216  and  _219
REMARK   89  A    between atoms: _219  and  _220
REMARK   90  A    between atoms: _220  and  _221
REMARK   91  A    between atoms: _226  and  _228
REMARK   92  A    between atoms: _228  and  _229
REMARK   93  A    between atoms: _228  and  _231
REMARK   94  A    between atoms: _231  and  _232
REMARK   95  A    between atoms: _232  and  _233
REMARK   96  A    between atoms: _233  and  _234
REMARK   97  A    between atoms: _243  and  _245
REMARK   98  A    between atoms: _245  and  _246
REMARK   99  A    between atoms: _245  and  _248
REMARK  100  A    between atoms: _248  and  _249
REMARK  101  A    between atoms: _252  and  _254
REMARK  102  A    between atoms: _254  and  _255
REMARK  103  A    between atoms: _254  and  _257
REMARK  104  A    between atoms: _257  and  _258
REMARK  105  A    between atoms: _258  and  _259
REMARK  106  A    between atoms: _264  and  _266
REMARK  107  A    between atoms: _266  and  _267
REMARK  108  A    between atoms: _266  and  _269
REMARK  109  A    between atoms: _269  and  _270
REMARK  110  A    between atoms: _273  and  _275
REMARK  111  A    between atoms: _275  and  _276
REMARK  112  A    between atoms: _275  and  _278
REMARK  113  A    between atoms: _278  and  _279
REMARK  114  A    between atoms: _279  and  _280
REMARK  115  A    between atoms: _285  and  _287
REMARK  116  A    between atoms: _287  and  _288
REMARK  117  A    between atoms: _287  and  _290
REMARK  118  A    between atoms: _290  and  _291
REMARK  119  A    between atoms: _294  and  _296
REMARK  120  A    between atoms: _296  and  _297
REMARK  121  A    between atoms: _296  and  _299
REMARK  122  A    between atoms: _299  and  _300
REMARK  123  A    between atoms: _306  and  _308
REMARK  124  A    between atoms: _308  and  _309
REMARK  125  A    between atoms: _308  and  _311
REMARK  126  A    between atoms: _311  and  _312
REMARK  127  A    between atoms: _315  and  _317
REMARK  128  A    between atoms: _317  and  _318
REMARK  129  A    between atoms: _317  and  _320
REMARK  130  A    between atoms: _323  and  _325
REMARK  131  A    between atoms: _325  and  _326
REMARK  132  A    between atoms: _325  and  _328
REMARK  133  A    between atoms: _328  and  _329
REMARK  134  A    between atoms: _334  and  _336
REMARK  135  A    between atoms: _347  and  _350
REMARK  136  A    between atoms: _350  and  _351
REMARK  137  A    between atoms: _351  and  _352
REMARK  138  A    between atoms: _357  and  _360
REMARK  139  A    between atoms: _360  and  _361
REMARK  140  A    between atoms: _371  and  _372
REMARK  141  A    between atoms: _380  and  _382
REMARK  142  A    between atoms: _382  and  _383
REMARK  143  A    between atoms: _382  and  _385
REMARK  144  A    between atoms: _385  and  _386
REMARK  145  A    between atoms: _389  and  _391
REMARK  146  A    between atoms: _391  and  _392
REMARK  147  A    between atoms: _391  and  _394
REMARK  148  A    between atoms: _394  and  _395
REMARK  149  A    between atoms: _400  and  _401
REMARK  150  A    between atoms: _403  and  _405
REMARK  151  A    between atoms: _405  and  _406
REMARK  152  A    between atoms: _405  and  _408
REMARK  153  A    between atoms: _408  and  _409
REMARK  154  A    between atoms: _415  and  _417
REMARK  155  A    between atoms: _417  and  _418
REMARK  156  A    between atoms: _417  and  _420
REMARK  157  A    between atoms: _420  and  _421
REMARK  158  A    between atoms: _426  and  _427
REMARK  159  A    between atoms: _429  and  _431
REMARK  160  A    between atoms: _431  and  _432
REMARK  161  A    between atoms: _431  and  _434
REMARK  162  A    between atoms: _434  and  _435
REMARK  163  A    between atoms: _435  and  _436
REMARK  164  A    between atoms: _436  and  _437
REMARK  165  A    between atoms: _446  and  _448
REMARK  166  A    between atoms: _448  and  _449
REMARK  167  A    between atoms: _448  and  _451
REMARK  168  A    between atoms: _451  and  _452
REMARK  169  A    between atoms: _455  and  _457
REMARK  170  A    between atoms: _457  and  _458
REMARK  171  A    between atoms: _460  and  _462
REMARK  172  A    between atoms: _462  and  _463
REMARK  173  A    between atoms: _462  and  _465
REMARK  174  A    between atoms: _465  and  _466
REMARK  175  A    between atoms: _472  and  _473
REMARK  176  A    between atoms: _478  and  _480
REMARK  177  A    between atoms: _480  and  _481
REMARK  178  A    between atoms: _483  and  _485
REMARK  179  A    between atoms: _485  and  _486
REMARK  180  A    between atoms: _485  and  _488
REMARK  181  A    between atoms: _488  and  _489
REMARK  182  A    between atoms: _495  and  _497
REMARK  183  A    between atoms: _497  and  _498
REMARK  184  A    between atoms: _497  and  _500
REMARK  185  A    between atoms: _500  and  _501
REMARK  186  A    between atoms: _506  and  _508
REMARK  187  A    between atoms: _508  and  _509
REMARK  188  A    between atoms: _508  and  _511
REMARK  189  A    between atoms: _511  and  _512
REMARK  190  A    between atoms: _512  and  _513
REMARK  191  A    between atoms: _513  and  _514
REMARK  192  A    between atoms: _514  and  ZN_788
REMARK  193  A    between atoms: _516  and  _518
REMARK  194  A    between atoms: _518  and  _519
REMARK  195  A    between atoms: _522  and  _524
REMARK  196  A    between atoms: _524  and  _525
REMARK  197  A    between atoms: _527  and  _529
REMARK  198  A    between atoms: _529  and  _530
REMARK  199  A    between atoms: _529  and  _532
REMARK  200  A    between atoms: _532  and  _533
REMARK  201  A    between atoms: _536  and  _538
REMARK  202  A    between atoms: _538  and  _539
REMARK  203  A    between atoms: _538  and  _541
REMARK  204  A    between atoms: _544  and  _546
REMARK  205  A    between atoms: _546  and  _547
REMARK  206  A    between atoms: _546  and  _549
REMARK  207  A    between atoms: _549  and  _550
REMARK  208  A    between atoms: _552  and  _554
REMARK  209  A    between atoms: _554  and  _555
REMARK  210  A    between atoms: _554  and  _557
REMARK  211  A    between atoms: _557  and  _558
REMARK  212  A    between atoms: _561  and  _563
REMARK  213  A    between atoms: _563  and  _564
REMARK  214  A    between atoms: _563  and  _566
REMARK  215  A    between atoms: _566  and  _567
REMARK  216  A    between atoms: _570  and  _572
REMARK  217  A    between atoms: _572  and  _573
REMARK  218  A    between atoms: _572  and  _575
REMARK  219  A    between atoms: _575  and  _576
REMARK  220  A    between atoms: _576  and  _577
REMARK  221  A    between atoms: _577  and  _578
REMARK  222  A    between atoms: _578  and  _579
REMARK  223  A    between atoms: _583  and  _585
REMARK  224  A    between atoms: _585  and  _586
REMARK  225  A    between atoms: _585  and  _588
REMARK  226  A    between atoms: _588  and  _589
REMARK  227  A    between atoms: _595  and  _597
REMARK  228  A    between atoms: _597  and  _598
REMARK  229  A    between atoms: _597  and  _600
REMARK  230  A    between atoms: _600  and  _601
REMARK  231  A    between atoms: _607  and  _609
REMARK  232  A    between atoms: _609  and  _610
REMARK  233  A    between atoms: _613  and  _615
REMARK  234  A    between atoms: _615  and  _616
REMARK  235  A    between atoms: _615  and  _618
REMARK  236  A    between atoms: _618  and  _619
REMARK  237  A    between atoms: _619  and  _620
REMARK  238  A    between atoms: _622  and  _624
REMARK  239  A    between atoms: _624  and  _625
REMARK  240  A    between atoms: _624  and  _627
REMARK  241  A    between atoms: _627  and  _628
REMARK  242  A    between atoms: _628  and  _629
REMARK  243  A    between atoms: _629  and  _630
REMARK  244  A    between atoms: _630  and  _631
REMARK  245  A    between atoms: _635  and  _637
REMARK  246  A    between atoms: _637  and  _638
REMARK  247  A    between atoms: _637  and  _640
REMARK  248  A    between atoms: _640  and  _641
REMARK  249  A    between atoms: _646  and  _647
REMARK  250  A    between atoms: _649  and  _651
REMARK  251  A    between atoms: _651  and  _652
REMARK  252  A    between atoms: _651  and  _654
REMARK  253  A    between atoms: _654  and  _655
REMARK  254  A    between atoms: _660  and  _662
REMARK  255  A    between atoms: _662  and  _663
REMARK  256  A    between atoms: _662  and  _665
REMARK  257  A    between atoms: _665  and  _666
REMARK  258  A    between atoms: _669  and  _671
REMARK  259  A    between atoms: _671  and  _672
REMARK  260  A    between atoms: _675  and  _677
REMARK  261  A    between atoms: _677  and  _678
REMARK  262  A    between atoms: _677  and  _680
REMARK  263  A    between atoms: _680  and  _681
REMARK  264  A    between atoms: _684  and  _686
REMARK  265  A    between atoms: _686  and  _687
REMARK  266  A    between atoms: _686  and  _689
REMARK  267  A    between atoms: _692  and  _694
REMARK  268  A    between atoms: _694  and  _695
REMARK  269  A    between atoms: _694  and  _697
REMARK  270  A    between atoms: _697  and  _698
REMARK  271  A    between atoms: _698  and  _699
REMARK  272  A    between atoms: _702  and  _704
REMARK  273  A    between atoms: _704  and  _705
REMARK  274  A    between atoms: _704  and  _707
REMARK  275  A    between atoms: _707  and  _708
REMARK  276  A    between atoms: _713  and  _714
REMARK  277  A    between atoms: _716  and  _718
REMARK  278  A    between atoms: _718  and  _719
REMARK  279  A    between atoms: _718  and  _721
REMARK  280  A    between atoms: _721  and  _722
REMARK  281  A    between atoms: _722  and  _723
REMARK  282  A    between atoms: _723  and  _724
REMARK  283  A    between atoms: _733  and  _735
REMARK  284  A    between atoms: _735  and  _736
REMARK  285  A    between atoms: _735  and  _738
REMARK  286  A    between atoms: _738  and  _739
REMARK  287  A    between atoms: _744  and  _745
REMARK  288  A    between atoms: _747  and  _749
REMARK  289  A    between atoms: _749  and  _750
REMARK  290  A    between atoms: _749  and  _752
REMARK  291  A    between atoms: _752  and  _753
REMARK  292  A    between atoms: _756  and  _758
REMARK  293  A    between atoms: _758  and  _759
REMARK  294  A    between atoms: _758  and  _761
REMARK  295  A    between atoms: _761  and  _762
REMARK  296  A    between atoms: _764  and  _766
REMARK  297  A    between atoms: _766  and  _767
REMARK  298  A    between atoms: _766  and  _769
REMARK  299  A    between atoms: _769  and  _770
REMARK  300  A    between atoms: _776  and  _778
REMARK  301  A    between atoms: _778  and  _779
REMARK  302  A    between atoms: _778  and  _781
REMARK  303  A    between atoms: _781  and  _782
REMARK  304  A    between atoms: _782  and  _783
REMARK                            x       y       z     vdW  Elec       q    Type
REMARK                         _______ _______ _______ _____ _____    ______ ____
ROOT
ATOM      1  C   TYR A   1      18.301  -1.378 -54.257  0.00  0.00    +0.239 C 
ATOM      2  N   PHE A   2      18.049  -1.821 -53.015  0.00  0.00    -0.298 N 
ATOM      3  H   PHE A   2      18.347  -1.241 -52.205  0.00  0.00    +0.150 HD
ATOM      4  O   TYR A   1      17.980  -1.991 -55.272  0.00  0.00    -0.274 OA
ENDROOT
BRANCH   1   5
ATOM      5  CA  TYR A   1      18.962   0.004 -54.380  0.00  0.00    +0.149 C 
BRANCH   5   6
ATOM      6  N   TYR A   1      18.261   0.936 -53.504  0.00  0.00    -0.238 NA
ATOM      7  H   TYR A   1      18.779   1.379 -52.718  0.00  0.00    +0.142 HD
ENDBRANCH   5   6
BRANCH   5   8
ATOM      8  CB  TYR A   1      20.450  -0.069 -54.009  0.00  0.00    +0.053 C 
BRANCH   8   9
ATOM      9  CG  TYR A   1      21.457  -0.181 -55.153  0.00  0.00    -0.020 A 
ATOM     10  CD2 TYR A   1      22.748   0.290 -54.976  0.00  0.00    -0.001 A 
ATOM     11  CE2 TYR A   1      23.701   0.185 -55.967  0.00  0.00    +0.036 A 
ATOM     12  CZ  TYR A   1      23.361  -0.397 -57.178  0.00  0.00    +0.134 A 
ATOM     13  CE1 TYR A   1      22.086  -0.886 -57.384  0.00  0.00    +0.036 A 
ATOM     14  CD1 TYR A   1      21.143  -0.782 -56.375  0.00  0.00    -0.001 A 
BRANCH  12  15
ATOM     15  OH  TYR A   1      24.331  -0.487 -58.146  0.00  0.00    -0.506 OA
ATOM     16  HH  TYR A   1      23.952  -0.920 -58.952  0.00  0.00    +0.292 HD
ENDBRANCH  12  15
ENDBRANCH   8   9
ENDBRANCH   5   8
ENDBRANCH   1   5
BRANCH   2  17
ATOM     17  CA  PHE A   2      17.368  -3.094 -52.762  0.00  0.00    +0.141 C 
BRANCH  17  18
ATOM     18  C   PHE A   2      16.048  -3.200 -53.521  0.00  0.00    +0.227 C 
ATOM     19  O   PHE A   2      15.757  -4.230 -54.130  0.00  0.00    -0.286 OA
ENDBRANCH  17  18
BRANCH  17  20
ATOM     20  CB  PHE A   2      17.036  -3.313 -51.276  0.00  0.00    +0.054 C 
BRANCH  20  21
ATOM     21  CG  PHE A   2      18.223  -3.327 -50.347  0.00  0.00    -0.020 A 
ATOM     22  CD2 PHE A   2      18.045  -3.035 -48.995  0.00  0.00    -0.004 A 
ATOM     23  CE2 PHE A   2      19.112  -3.054 -48.108  0.00  0.00    -0.000 A 
ATOM     24  CZ  PHE A   2      20.370  -3.394 -48.557  0.00  0.00    -0.000 A 
ATOM     25  CE1 PHE A   2      20.566  -3.704 -49.898  0.00  0.00    -0.000 A 
ATOM     26  CD1 PHE A   2      19.499  -3.682 -50.781  0.00  0.00    -0.004 A 
ENDBRANCH  20  21
ENDBRANCH  17  20
ENDBRANCH   2  17
TORSDOF 9
REMARK  Name = ../refined-set-2016/4ca8/4ca8_pocket.pdb
REMARK  304 active torsions:
REMARK  status: ('A' for Active; 'I' for Inactive)
REMARK    1  A    between atoms: _1  and  _3
REMARK    2  A    between atoms: _3  and  _4
REMARK    3  A    between atoms: _3  and  _6
REMARK    4  A    between atoms: _6  and  _7
REMARK    5  A    between atoms: _7  and  _8
REMARK    6  A    between atoms: _11  and  _13
REMARK    7  A    between atoms: _13  and  _14
REMARK    8  A    between atoms: _13  and  _16
REMARK    9  A    between atoms: _16  and  _17
REMARK   10  A    between atoms: _17  and  _18
REMARK   11  A    between atoms: _21  and  _23
REMARK   12  A    between atoms: _23  and  _24
REMARK   13  A    between atoms: _23  and  _26
REMARK   14  A    between atoms: _26  and  _27
REMARK   15  A    between atoms: _32  and  _34
REMARK   16  A    between atoms: _34  and  _35
REMARK   17  A    between atoms: _34  and  _37
REMARK   18  A    between atoms: _37  and  _38
REMARK   19  A    between atoms: _48  and  _50
REMARK   20  A    between atoms: _50  and  _51
REMARK   21  A    between atoms: _50  and  _53
REMARK   22  A    between atoms: _53  and  _54
REMARK   23  A    between atoms: _54  and  _55
REMARK   24  A    between atoms: _60  and  _62
REMARK   25  A    between atoms: _62  and  _63
REMARK   26  A    between atoms: _62  and  _65
REMARK   27  A    between atoms: _65  and  _66
REMARK   28  A    between atoms: _66  and  _67
REMARK   29  A    between atoms: _72  and  _74
REMARK   30  A    between atoms: _74  and  _75
REMARK   31  A    between atoms: _74  and  _77
REMARK   32  A    between atoms: _77  and  _78
REMARK   33  A    between atoms: _80  and  _82
REMARK   34  A    between atoms: _82  and  _83
REMARK   35  A    between atoms: _82  and  _85
REMARK   36  A    between atoms: _85  and  _86
REMARK   37  A    between atoms: _86  and  _87
REMARK   38  A    between atoms: _90  and  _92
REMARK   39  A    between atoms: _92  and  _93
REMARK   40  A    between atoms: _92  and  _95
REMARK   41  A    between atoms: _98  and  _100
REMARK   42  A    between atoms: _100  and  _101
REMARK   43  A    between atoms: _100  and  _103
REMARK   44  A    between atoms: _105  and  _107
REMARK   45  A    between atoms: _107  and  _108
REMARK   46  A    between atoms: _107  and  _110
REMARK   47  A    between atoms: _110  and  _111
REMARK   48  A    between atoms: _116  and  _118
REMARK   49  A    between atoms: _118  and  _119
REMARK   50  A    between atoms: _122  and  _124
REMARK   51  A    between atoms: _124  and  _125
REMARK   52  A    between atoms: _124  and  _127
REMARK   53  A    between atoms: _127  and  _128
REMARK   54  A    between atoms: _130  and  _132
REMARK   55  A    between atoms: _132  and  _133
REMARK   56  A    between atoms: _136  and  _138
REMARK   57  A    between atoms: _138  and  _139
REMARK   58  A    between atoms: _138  and  _141
REMARK   59  A    between atoms: _141  and  _142
REMARK   60  A    between atoms: _152  and  _154
REMARK   61  A    between atoms: _154  and  _155
REMARK   62  A    between atoms: _154  and  _157
REMARK   63  A    between atoms: _157  and  _158
REMARK   64  A    between atoms: _161  and  _163
REMARK   65  A    between atoms: _163  and  _164
REMARK   66  A    between atoms: _163  and  _166
REMARK   67  A    between atoms: _166  and  _167
REMARK   68  A    between atoms: _172  and  _173
REMARK   69  A    between atoms: _175  and  _177
REMARK   70  A    between atoms: _177  and  _178
REMARK   71  A    between atoms: _177  and  _180
REMARK   72  A    between atoms: _180  and  _181
REMARK   73  A    between atoms: _181  and  _182
REMARK   74  A    between atoms: _182  and  _183
REMARK   75  A    between atoms: _192  and  _194
REMARK   76  A    between atoms: _194  and  _195
REMARK   77  A    between atoms: _194  and  _197
REMARK   78  A    between atoms: _197  and  _198
REMARK   79  A    between atoms: _201  and  _203
REMARK   80  A    between atoms: _203  and  _204
REMARK   81  A    between atoms: _203  and  _206
REMARK   82  A    between atoms: _206  and  _207
REMARK   83  A    between atoms: _207  and  _208
REMARK   84  A    between atoms: _208  and  _209
REMARK   85  A    between atoms: _209  and  _210
REMARK   86  A    between atoms: _214  and  _216
REMARK   87  A    between atoms: _216  and  _217
REMARK   88  A    between atoms: _216  and  _219
REMARK   89  A    between atoms: _219  and  _220
REMARK   90  A    between atoms: _220  and  _221
REMARK   91  A    between atoms: _226  and  _228
REMARK   92  A    between atoms: _228  and  _229
REMARK   93  A    between atoms: _228  and  _231
REMARK   94  A    between atoms: _231  and  _232
REMARK   95  A    between atoms: _232  and  _233
REMARK   96  A    between atoms: _233  and  _234
REMARK   97  A    between atoms: _243  and  _245
REMARK   98  A    between atoms: _245  and  _246
REMARK   99  A    between atoms: _245  and  _248
REMARK  100  A    between atoms: _248  and  _249
REMARK  101  A    between atoms: _252  and  _254
REMARK  102  A    between atoms: _254  and  _255
REMARK  103  A    between atoms: _254  and  _257
REMARK  104  A    between atoms: _257  and  _258
REMARK  105  A    between atoms: _258  and  _259
REMARK  106  A    between atoms: _264  and  _266
REMARK  107  A    between atoms: _266  and  _267
REMARK  108  A    between atoms: _266  and  _269
REMARK  109  A    between atoms: _269  and  _270
REMARK  110  A    between atoms: _273  and  _275
REMARK  111  A    between atoms: _275  and  _276
REMARK  112  A    between atoms: _275  and  _278
REMARK  113  A    between atoms: _278  and  _279
REMARK  114  A    between atoms: _279  and  _280
REMARK  115  A    between atoms: _285  and  _287
REMARK  116  A    between atoms: _287  and  _288
REMARK  117  A    between atoms: _287  and  _290
REMARK  118  A    between atoms: _290  and  _291
REMARK  119  A    between atoms: _294  and  _296
REMARK  120  A    between atoms: _296  and  _297
REMARK  121  A    between atoms: _296  and  _299
REMARK  122  A    between atoms: _299  and  _300
REMARK  123  A    between atoms: _306  and  _308
REMARK  124  A    between atoms: _308  and  _309
REMARK  125  A    between atoms: _308  and  _311
REMARK  126  A    between atoms: _311  and  _312
REMARK  127  A    between atoms: _315  and  _317
REMARK  128  A    between atoms: _317  and  _318
REMARK  129  A    between atoms: _317  and  _320
REMARK  130  A    between atoms: _323  and  _325
REMARK  131  A    between atoms: _325  and  _326
REMARK  132  A    between atoms: _325  and  _328
REMARK  133  A    between atoms: _328  and  _329
REMARK  134  A    between atoms: _334  and  _336
REMARK  135  A    between atoms: _347  and  _350
REMARK  136  A    between atoms: _350  and  _351
REMARK  137  A    between atoms: _351  and  _352
REMARK  138  A    between atoms: _357  and  _360
REMARK  139  A    between atoms: _360  and  _361
REMARK  140  A    between atoms: _371  and  _372
REMARK  141  A    between atoms: _380  and  _382
REMARK  142  A    between atoms: _382  and  _383
REMARK  143  A    between atoms: _382  and  _385
REMARK  144  A    between atoms: _385  and  _386
REMARK  145  A    between atoms: _389  and  _391
REMARK  146  A    between atoms: _391  and  _392
REMARK  147  A    between atoms: _391  and  _394
REMARK  148  A    between atoms: _394  and  _395
REMARK  149  A    between atoms: _400  and  _401
REMARK  150  A    between atoms: _403  and  _405
REMARK  151  A    between atoms: _405  and  _406
REMARK  152  A    between atoms: _405  and  _408
REMARK  153  A    between atoms: _408  and  _409
REMARK  154  A    between atoms: _415  and  _417
REMARK  155  A    between atoms: _417  and  _418
REMARK  156  A    between atoms: _417  and  _420
REMARK  157  A    between atoms: _420  and  _421
REMARK  158  A    between atoms: _426  and  _427
REMARK  159  A    between atoms: _429  and  _431
REMARK  160  A    between atoms: _431  and  _432
REMARK  161  A    between atoms: _431  and  _434
REMARK  162  A    between atoms: _434  and  _435
REMARK  163  A    between atoms: _435  and  _436
REMARK  164  A    between atoms: _436  and  _437
REMARK  165  A    between atoms: _446  and  _448
REMARK  166  A    between atoms: _448  and  _449
REMARK  167  A    between atoms: _448  and  _451
REMARK  168  A    between atoms: _451  and  _452
REMARK  169  A    between atoms: _455  and  _457
REMARK  170  A    between atoms: _457  and  _458
REMARK  171  A    between atoms: _460  and  _462
REMARK  172  A    between atoms: _462  and  _463
REMARK  173  A    between atoms: _462  and  _465
REMARK  174  A    between atoms: _465  and  _466
REMARK  175  A    between atoms: _472  and  _473
REMARK  176  A    between atoms: _478  and  _480
REMARK  177  A    between atoms: _480  and  _481
REMARK  178  A    between atoms: _483  and  _485
REMARK  179  A    between atoms: _485  and  _486
REMARK  180  A    between atoms: _485  and  _488
REMARK  181  A    between atoms: _488  and  _489
REMARK  182  A    between atoms: _495  and  _497
REMARK  183  A    between atoms: _497  and  _498
REMARK  184  A    between atoms: _497  and  _500
REMARK  185  A    between atoms: _500  and  _501
REMARK  186  A    between atoms: _506  and  _508
REMARK  187  A    between atoms: _508  and  _509
REMARK  188  A    between atoms: _508  and  _511
REMARK  189  A    between atoms: _511  and  _512
REMARK  190  A    between atoms: _512  and  _513
REMARK  191  A    between atoms: _513  and  _514
REMARK  192  A    between atoms: _514  and  ZN_788
REMARK  193  A    between atoms: _516  and  _518
REMARK  194  A    between atoms: _518  and  _519
REMARK  195  A    between atoms: _522  and  _524
REMARK  196  A    between atoms: _524  and  _525
REMARK  197  A    between atoms: _527  and  _529
REMARK  198  A    between atoms: _529  and  _530
REMARK  199  A    between atoms: _529  and  _532
REMARK  200  A    between atoms: _532  and  _533
REMARK  201  A    between atoms: _536  and  _538
REMARK  202  A    between atoms: _538  and  _539
REMARK  203  A    between atoms: _538  and  _541
REMARK  204  A    between atoms: _544  and  _546
REMARK  205  A    between atoms: _546  and  _547
REMARK  206  A    between atoms: _546  and  _549
REMARK  207  A    between atoms: _549  and  _550
REMARK  208  A    between atoms: _552  and  _554
REMARK  209  A    between atoms: _554  and  _555
REMARK  210  A    between atoms: _554  and  _557
REMARK  211  A    between atoms: _557  and  _558
REMARK  212  A    between atoms: _561  and  _563
REMARK  213  A    between atoms: _563  and  _564
REMARK  214  A    between atoms: _563  and  _566
REMARK  215  A    between atoms: _566  and  _567
REMARK  216  A    between atoms: _570  and  _572
REMARK  217  A    between atoms: _572  and  _573
REMARK  218  A    between atoms: _572  and  _575
REMARK  219  A    between atoms: _575  and  _576
REMARK  220  A    between atoms: _576  and  _577
REMARK  221  A    between atoms: _577  and  _578
REMARK  222  A    between atoms: _578  and  _579
REMARK  223  A    between atoms: _583  and  _585
REMARK  224  A    between atoms: _585  and  _586
REMARK  225  A    between atoms: _585  and  _588
REMARK  226  A    between atoms: _588  and  _589
REMARK  227  A    between atoms: _595  and  _597
REMARK  228  A    between atoms: _597  and  _598
REMARK  229  A    between atoms: _597  and  _600
REMARK  230  A    between atoms: _600  and  _601
REMARK  231  A    between atoms: _607  and  _609
REMARK  232  A    between atoms: _609  and  _610
REMARK  233  A    between atoms: _613  and  _615
REMARK  234  A    between atoms: _615  and  _616
REMARK  235  A    between atoms: _615  and  _618
REMARK  236  A    between atoms: _618  and  _619
REMARK  237  A    between atoms: _619  and  _620
REMARK  238  A    between atoms: _622  and  _624
REMARK  239  A    between atoms: _624  and  _625
REMARK  240  A    between atoms: _624  and  _627
REMARK  241  A    between atoms: _627  and  _628
REMARK  242  A    between atoms: _628  and  _629
REMARK  243  A    between atoms: _629  and  _630
REMARK  244  A    between atoms: _630  and  _631
REMARK  245  A    between atoms: _635  and  _637
REMARK  246  A    between atoms: _637  and  _638
REMARK  247  A    between atoms: _637  and  _640
REMARK  248  A    between atoms: _640  and  _641
REMARK  249  A    between atoms: _646  and  _647
REMARK  250  A    between atoms: _649  and  _651
REMARK  251  A    between atoms: _651  and  _652
REMARK  252  A    between atoms: _651  and  _654
REMARK  253  A    between atoms: _654  and  _655
REMARK  254  A    between atoms: _660  and  _662
REMARK  255  A    between atoms: _662  and  _663
REMARK  256  A    between atoms: _662  and  _665
REMARK  257  A    between atoms: _665  and  _666
REMARK  258  A    between atoms: _669  and  _671
REMARK  259  A    between atoms: _671  and  _672
REMARK  260  A    between atoms: _675  and  _677
REMARK  261  A    between atoms: _677  and  _678
REMARK  262  A    between atoms: _677  and  _680
REMARK  263  A    between atoms: _680  and  _681
REMARK  264  A    between atoms: _684  and  _686
REMARK  265  A    between atoms: _686  and  _687
REMARK  266  A    between atoms: _686  and  _689
REMARK  267  A    between atoms: _692  and  _694
REMARK  268  A    between atoms: _694  and  _695
REMARK  269  A    between atoms: _694  and  _697
REMARK  270  A    between atoms: _697  and  _698
REMARK  271  A    between atoms: _698  and  _699
REMARK  272  A    between atoms: _702  and  _704
REMARK  273  A    between atoms: _704  and  _705
REMARK  274  A    between atoms: _704  and  _707
REMARK  275  A    between atoms: _707  and  _708
REMARK  276  A    between atoms: _713  and  _714
REMARK  277  A    between atoms: _716  and  _718
REMARK  278  A    between atoms: _718  and  _719
REMARK  279  A    between atoms: _718  and  _721
REMARK  280  A    between atoms: _721  and  _722
REMARK  281  A    between atoms: _722  and  _723
REMARK  282  A    between atoms: _723  and  _724
REMARK  283  A    between atoms: _733  and  _735
REMARK  284  A    between atoms: _735  and  _736
REMARK  285  A    between atoms: _735  and  _738
REMARK  286  A    between atoms: _738  and  _739
REMARK  287  A    between atoms: _744  and  _745
REMARK  288  A    between atoms: _747  and  _749
REMARK  289  A    between atoms: _749  and  _750
REMARK  290  A    between atoms: _749  and  _752
REMARK  291  A    between atoms: _752  and  _753
REMARK  292  A    between atoms: _756  and  _758
REMARK  293  A    between atoms: _758  and  _759
REMARK  294  A    between atoms: _758  and  _761
REMARK  295  A    between atoms: _761  and  _762
REMARK  296  A    between atoms: _764  and  _766
REMARK  297  A    between atoms: _766  and  _767
REMARK  298  A    between atoms: _766  and  _769
REMARK  299  A    between atoms: _769  and  _770
REMARK  300  A    between atoms: _776  and  _778
REMARK  301  A    between atoms: _778  and  _779
REMARK  302  A    between atoms: _778  and  _781
REMARK  303  A    between atoms: _781  and  _782
REMARK  304  A    between atoms: _782  and  _783
REMARK                            x       y       z     vdW  Elec       q    Type
REMARK                         _______ _______ _______ _____ _____    ______ ____
ROOT
ATOM      1  CG  TYR A   1      19.194  -4.724 -56.739  0.00  0.00    -0.020 A 
ATOM      2  CD2 TYR A   1      18.794  -5.583 -55.727  0.00  0.00    -0.001 A 
ATOM      3  CE2 TYR A   1      19.478  -5.640 -54.510  0.00  0.00    +0.036 A 
ATOM      4  CZ  TYR A   1      20.608  -4.857 -54.312  0.00  0.00    +0.134 A 
ATOM      5  CE1 TYR A   1      21.039  -4.019 -55.319  0.00  0.00    +0.036 A 
ATOM      6  CD1 TYR A   1      20.337  -3.965 -56.522  0.00  0.00    -0.001 A 
ENDROOT
BRANCH   4   7
ATOM      7  OH  TYR A   1      21.305  -4.916 -53.111  0.00  0.00    -0.506 OA
ATOM      8  HH  TYR A   1      20.863  -5.562 -52.505  0.00  0.00    +0.292 HD
ENDBRANCH   4   7
BRANCH   1   9
ATOM      9  CB  TYR A   1      18.475  -4.667 -58.091  0.00  0.00    +0.051 C 
BRANCH   9  10
ATOM     10  CA  TYR A   1      16.928  -4.586 -58.117  0.00  0.00    +0.137 C 
BRANCH  10  11
ATOM     11  N   TYR A   1      16.433  -3.365 -57.476  0.00  0.00    -0.239 NA
ATOM     12  H   TYR A   1      16.615  -3.194 -56.466  0.00  0.00    +0.142 HD
ENDBRANCH  10  11
BRANCH  10  13
ATOM     13  C   TYR A   1      16.296  -5.867 -57.607  0.00  0.00    +0.224 C 
ATOM     14  O   TYR A   1      16.769  -6.942 -57.954  0.00  0.00    -0.287 OA
ENDBRANCH  10  13
ENDBRANCH   9  10
ENDBRANCH   1   9
TORSDOF 5
REMARK  Name = ../refined-set-2016/4ca8/4ca8_pocket.pdb
REMARK  304 active torsions:
REMARK  status: ('A' for Active; 'I' for Inactive)
REMARK    1  A    between atoms: _1  and  _3
REMARK    2  A    between atoms: _3  and  _4
REMARK    3  A    between atoms: _3  and  _6
REMARK    4  A    between atoms: _6  and  _7
REMARK    5  A    between atoms: _7  and  _8
REMARK    6  A    between atoms: _11  and  _13
REMARK    7  A    between atoms: _13  and  _14
REMARK    8  A    between atoms: _13  and  _16
REMARK    9  A    between atoms: _16  and  _17
REMARK   10  A    between atoms: _17  and  _18
REMARK   11  A    between atoms: _21  and  _23
REMARK   12  A    between atoms: _23  and  _24
REMARK   13  A    between atoms: _23  and  _26
REMARK   14  A    between atoms: _26  and  _27
REMARK   15  A    between atoms: _32  and  _34
REMARK   16  A    between atoms: _34  and  _35
REMARK   17  A    between atoms: _34  and  _37
REMARK   18  A    between atoms: _37  and  _38
REMARK   19  A    between atoms: _48  and  _50
REMARK   20  A    between atoms: _50  and  _51
REMARK   21  A    between atoms: _50  and  _53
REMARK   22  A    between atoms: _53  and  _54
REMARK   23  A    between atoms: _54  and  _55
REMARK   24  A    between atoms: _60  and  _62
REMARK   25  A    between atoms: _62  and  _63
REMARK   26  A    between atoms: _62  and  _65
REMARK   27  A    between atoms: _65  and  _66
REMARK   28  A    between atoms: _66  and  _67
REMARK   29  A    between atoms: _72  and  _74
REMARK   30  A    between atoms: _74  and  _75
REMARK   31  A    between atoms: _74  and  _77
REMARK   32  A    between atoms: _77  and  _78
REMARK   33  A    between atoms: _80  and  _82
REMARK   34  A    between atoms: _82  and  _83
REMARK   35  A    between atoms: _82  and  _85
REMARK   36  A    between atoms: _85  and  _86
REMARK   37  A    between atoms: _86  and  _87
REMARK   38  A    between atoms: _90  and  _92
REMARK   39  A    between atoms: _92  and  _93
REMARK   40  A    between atoms: _92  and  _95
REMARK   41  A    between atoms: _98  and  _100
REMARK   42  A    between atoms: _100  and  _101
REMARK   43  A    between atoms: _100  and  _103
REMARK   44  A    between atoms: _105  and  _107
REMARK   45  A    between atoms: _107  and  _108
REMARK   46  A    between atoms: _107  and  _110
REMARK   47  A    between atoms: _110  and  _111
REMARK   48  A    between atoms: _116  and  _118
REMARK   49  A    between atoms: _118  and  _119
REMARK   50  A    between atoms: _122  and  _124
REMARK   51  A    between atoms: _124  and  _125
REMARK   52  A    between atoms: _124  and  _127
REMARK   53  A    between atoms: _127  and  _128
REMARK   54  A    between atoms: _130  and  _132
REMARK   55  A    between atoms: _132  and  _133
REMARK   56  A    between atoms: _136  and  _138
REMARK   57  A    between atoms: _138  and  _139
REMARK   58  A    between atoms: _138  and  _141
REMARK   59  A    between atoms: _141  and  _142
REMARK   60  A    between atoms: _152  and  _154
REMARK   61  A    between atoms: _154  and  _155
REMARK   62  A    between atoms: _154  and  _157
REMARK   63  A    between atoms: _157  and  _158
REMARK   64  A    between atoms: _161  and  _163
REMARK   65  A    between atoms: _163  and  _164
REMARK   66  A    between atoms: _163  and  _166
REMARK   67  A    between atoms: _166  and  _167
REMARK   68  A    between atoms: _172  and  _173
REMARK   69  A    between atoms: _175  and  _177
REMARK   70  A    between atoms: _177  and  _178
REMARK   71  A    between atoms: _177  and  _180
REMARK   72  A    between atoms: _180  and  _181
REMARK   73  A    between atoms: _181  and  _182
REMARK   74  A    between atoms: _182  and  _183
REMARK   75  A    between atoms: _192  and  _194
REMARK   76  A    between atoms: _194  and  _195
REMARK   77  A    between atoms: _194  and  _197
REMARK   78  A    between atoms: _197  and  _198
REMARK   79  A    between atoms: _201  and  _203
REMARK   80  A    between atoms: _203  and  _204
REMARK   81  A    between atoms: _203  and  _206
REMARK   82  A    between atoms: _206  and  _207
REMARK   83  A    between atoms: _207  and  _208
REMARK   84  A    between atoms: _208  and  _209
REMARK   85  A    between atoms: _209  and  _210
REMARK   86  A    between atoms: _214  and  _216
REMARK   87  A    between atoms: _216  and  _217
REMARK   88  A    between atoms: _216  and  _219
REMARK   89  A    between atoms: _219  and  _220
REMARK   90  A    between atoms: _220  and  _221
REMARK   91  A    between atoms: _226  and  _228
REMARK   92  A    between atoms: _228  and  _229
REMARK   93  A    between atoms: _228  and  _231
REMARK   94  A    between atoms: _231  and  _232
REMARK   95  A    between atoms: _232  and  _233
REMARK   96  A    between atoms: _233  and  _234
REMARK   97  A    between atoms: _243  and  _245
REMARK   98  A    between atoms: _245  and  _246
REMARK   99  A    between atoms: _245  and  _248
REMARK  100  A    between atoms: _248  and  _249
REMARK  101  A    between atoms: _252  and  _254
REMARK  102  A    between atoms: _254  and  _255
REMARK  103  A    between atoms: _254  and  _257
REMARK  104  A    between atoms: _257  and  _258
REMARK  105  A    between atoms: _258  and  _259
REMARK  106  A    between atoms: _264  and  _266
REMARK  107  A    between atoms: _266  and  _267
REMARK  108  A    between atoms: _266  and  _269
REMARK  109  A    between atoms: _269  and  _270
REMARK  110  A    between atoms: _273  and  _275
REMARK  111  A    between atoms: _275  and  _276
REMARK  112  A    between atoms: _275  and  _278
REMARK  113  A    between atoms: _278  and  _279
REMARK  114  A    between atoms: _279  and  _280
REMARK  115  A    between atoms: _285  and  _287
REMARK  116  A    between atoms: _287  and  _288
REMARK  117  A    between atoms: _287  and  _290
REMARK  118  A    between atoms: _290  and  _291
REMARK  119  A    between atoms: _294  and  _296
REMARK  120  A    between atoms: _296  and  _297
REMARK  121  A    between atoms: _296  and  _299
REMARK  122  A    between atoms: _299  and  _300
REMARK  123  A    between atoms: _306  and  _308
REMARK  124  A    between atoms: _308  and  _309
REMARK  125  A    between atoms: _308  and  _311
REMARK  126  A    between atoms: _311  and  _312
REMARK  127  A    between atoms: _315  and  _317
REMARK  128  A    between atoms: _317  and  _318
REMARK  129  A    between atoms: _317  and  _320
REMARK  130  A    between atoms: _323  and  _325
REMARK  131  A    between atoms: _325  and  _326
REMARK  132  A    between atoms: _325  and  _328
REMARK  133  A    between atoms: _328  and  _329
REMARK  134  A    between atoms: _334  and  _336
REMARK  135  A    between atoms: _347  and  _350
REMARK  136  A    between atoms: _350  and  _351
REMARK  137  A    between atoms: _351  and  _352
REMARK  138  A    between atoms: _357  and  _360
REMARK  139  A    between atoms: _360  and  _361
REMARK  140  A    between atoms: _371  and  _372
REMARK  141  A    between atoms: _380  and  _382
REMARK  142  A    between atoms: _382  and  _383
REMARK  143  A    between atoms: _382  and  _385
REMARK  144  A    between atoms: _385  and  _386
REMARK  145  A    between atoms: _389  and  _391
REMARK  146  A    between atoms: _391  and  _392
REMARK  147  A    between atoms: _391  and  _394
REMARK  148  A    between atoms: _394  and  _395
REMARK  149  A    between atoms: _400  and  _401
REMARK  150  A    between atoms: _403  and  _405
REMARK  151  A    between atoms: _405  and  _406
REMARK  152  A    between atoms: _405  and  _408
REMARK  153  A    between atoms: _408  and  _409
REMARK  154  A    between atoms: _415  and  _417
REMARK  155  A    between atoms: _417  and  _418
REMARK  156  A    between atoms: _417  and  _420
REMARK  157  A    between atoms: _420  and  _421
REMARK  158  A    between atoms: _426  and  _427
REMARK  159  A    between atoms: _429  and  _431
REMARK  160  A    between atoms: _431  and  _432
REMARK  161  A    between atoms: _431  and  _434
REMARK  162  A    between atoms: _434  and  _435
REMARK  163  A    between atoms: _435  and  _436
REMARK  164  A    between atoms: _436  and  _437
REMARK  165  A    between atoms: _446  and  _448
REMARK  166  A    between atoms: _448  and  _449
REMARK  167  A    between atoms: _448  and  _451
REMARK  168  A    between atoms: _451  and  _452
REMARK  169  A    between atoms: _455  and  _457
REMARK  170  A    between atoms: _457  and  _458
REMARK  171  A    between atoms: _460  and  _462
REMARK  172  A    between atoms: _462  and  _463
REMARK  173  A    between atoms: _462  and  _465
REMARK  174  A    between atoms: _465  and  _466
REMARK  175  A    between atoms: _472  and  _473
REMARK  176  A    between atoms: _478  and  _480
REMARK  177  A    between atoms: _480  and  _481
REMARK  178  A    between atoms: _483  and  _485
REMARK  179  A    between atoms: _485  and  _486
REMARK  180  A    between atoms: _485  and  _488
REMARK  181  A    between atoms: _488  and  _489
REMARK  182  A    between atoms: _495  and  _497
REMARK  183  A    between atoms: _497  and  _498
REMARK  184  A    between atoms: _497  and  _500
REMARK  185  A    between atoms: _500  and  _501
REMARK  186  A    between atoms: _506  and  _508
REMARK  187  A    between atoms: _508  and  _509
REMARK  188  A    between atoms: _508  and  _511
REMARK  189  A    between atoms: _511  and  _512
REMARK  190  A    between atoms: _512  and  _513
REMARK  191  A    between atoms: _513  and  _514
REMARK  192  A    between atoms: _514  and  ZN_788
REMARK  193  A    between atoms: _516  and  _518
REMARK  194  A    between atoms: _518  and  _519
REMARK  195  A    between atoms: _522  and  _524
REMARK  196  A    between atoms: _524  and  _525
REMARK  197  A    between atoms: _527  and  _529
REMARK  198  A    between atoms: _529  and  _530
REMARK  199  A    between atoms: _529  and  _532
REMARK  200  A    between atoms: _532  and  _533
REMARK  201  A    between atoms: _536  and  _538
REMARK  202  A    between atoms: _538  and  _539
REMARK  203  A    between atoms: _538  and  _541
REMARK  204  A    between atoms: _544  and  _546
REMARK  205  A    between atoms: _546  and  _547
REMARK  206  A    between atoms: _546  and  _549
REMARK  207  A    between atoms: _549  and  _550
REMARK  208  A    between atoms: _552  and  _554
REMARK  209  A    between atoms: _554  and  _555
REMARK  210  A    between atoms: _554  and  _557
REMARK  211  A    between atoms: _557  and  _558
REMARK  212  A    between atoms: _561  and  _563
REMARK  213  A    between atoms: _563  and  _564
REMARK  214  A    between atoms: _563  and  _566
REMARK  215  A    between atoms: _566  and  _567
REMARK  216  A    between atoms: _570  and  _572
REMARK  217  A    between atoms: _572  and  _573
REMARK  218  A    between atoms: _572  and  _575
REMARK  219  A    between atoms: _575  and  _576
REMARK  220  A    between atoms: _576  and  _577
REMARK  221  A    between atoms: _577  and  _578
REMARK  222  A    between atoms: _578  and  _579
REMARK  223  A    between atoms: _583  and  _585
REMARK  224  A    between atoms: _585  and  _586
REMARK  225  A    between atoms: _585  and  _588
REMARK  226  A    between atoms: _588  and  _589
REMARK  227  A    between atoms: _595  and  _597
REMARK  228  A    between atoms: _597  and  _598
REMARK  229  A    between atoms: _597  and  _600
REMARK  230  A    between atoms: _600  and  _601
REMARK  231  A    between atoms: _607  and  _609
REMARK  232  A    between atoms: _609  and  _610
REMARK  233  A    between atoms: _613  and  _615
REMARK  234  A    between atoms: _615  and  _616
REMARK  235  A    between atoms: _615  and  _618
REMARK  236  A    between atoms: _618  and  _619
REMARK  237  A    between atoms: _619  and  _620
REMARK  238  A    between atoms: _622  and  _624
REMARK  239  A    between atoms: _624  and  _625
REMARK  240  A    between atoms: _624  and  _627
REMARK  241  A    between atoms: _627  and  _628
REMARK  242  A    between atoms: _628  and  _629
REMARK  243  A    between atoms: _629  and  _630
REMARK  244  A    between atoms: _630  and  _631
REMARK  245  A    between atoms: _635  and  _637
REMARK  246  A    between atoms: _637  and  _638
REMARK  247  A    between atoms: _637  and  _640
REMARK  248  A    between atoms: _640  and  _641
REMARK  249  A    between atoms: _646  and  _647
REMARK  250  A    between atoms: _649  and  _651
REMARK  251  A    between atoms: _651  and  _652
REMARK  252  A    between atoms: _651  and  _654
REMARK  253  A    between atoms: _654  and  _655
REMARK  254  A    between atoms: _660  and  _662
REMARK  255  A    between atoms: _662  and  _663
REMARK  256  A    between atoms: _662  and  _665
REMARK  257  A    between atoms: _665  and  _666
REMARK  258  A    between atoms: _669  and  _671
REMARK  259  A    between atoms: _671  and  _672
REMARK  260  A    between atoms: _675  and  _677
REMARK  261  A    between atoms: _677  and  _678
REMARK  262  A    between atoms: _677  and  _680
REMARK  263  A    between atoms: _680  and  _681
REMARK  264  A    between atoms: _684  and  _686
REMARK  265  A    between atoms: _686  and  _687
REMARK  266  A    between atoms: _686  and  _689
REMARK  267  A    between atoms: _692  and  _694
REMARK  268  A    between atoms: _694  and  _695
REMARK  269  A    between atoms: _694  and  _697
REMARK  270  A    between atoms: _697  and  _698
REMARK  271  A    between atoms: _698  and  _699
REMARK  272  A    between atoms: _702  and  _704
REMARK  273  A    between atoms: _704  and  _705
REMARK  274  A    between atoms: _704  and  _707
REMARK  275  A    between atoms: _707  and  _708
REMARK  276  A    between atoms: _713  and  _714
REMARK  277  A    between atoms: _716  and  _718
REMARK  278  A    between atoms: _718  and  _719
REMARK  279  A    between atoms: _718  and  _721
REMARK  280  A    between atoms: _721  and  _722
REMARK  281  A    between atoms: _722  and  _723
REMARK  282  A    between atoms: _723  and  _724
REMARK  283  A    between atoms: _733  and  _735
REMARK  284  A    between atoms: _735  and  _736
REMARK  285  A    between atoms: _735  and  _738
REMARK  286  A    between atoms: _738  and  _739
REMARK  287  A    between atoms: _744  and  _745
REMARK  288  A    between atoms: _747  and  _749
REMARK  289  A    between atoms: _749  and  _750
REMARK  290  A    between atoms: _749  and  _752
REMARK  291  A    between atoms: _752  and  _753
REMARK  292  A    between atoms: _756  and  _758
REMARK  293  A    between atoms: _758  and  _759
REMARK  294  A    between atoms: _758  and  _761
REMARK  295  A    between atoms: _761  and  _762
REMARK  296  A    between atoms: _764  and  _766
REMARK  297  A    between atoms: _766  and  _767
REMARK  298  A    between atoms: _766  and  _769
REMARK  299  A    between atoms: _769  and  _770
REMARK  300  A    between atoms: _776  and  _778
REMARK  301  A    between atoms: _778  and  _779
REMARK  302  A    between atoms: _778  and  _781
REMARK  303  A    between atoms: _781  and  _782
REMARK  304  A    between atoms: _782  and  _783
REMARK                            x       y       z     vdW  Elec       q    Type
REMARK                         _______ _______ _______ _____ _____    ______ ____
ROOT
ATOM      1  C   ARG A   1      21.800  -7.964 -55.212  0.00  0.00    +0.238 C 
ATOM      2  O   ARG A   1      21.846  -8.282 -54.022  0.00  0.00    -0.274 OA
ATOM      3  N   THR A   2      22.665  -7.128 -55.769  0.00  0.00    -0.295 N 
ATOM      4  H   THR A   2      22.603  -6.952 -56.792  0.00  0.00    +0.150 HD
ENDROOT
BRANCH   1   5
ATOM      5  CA  ARG A   1      20.732  -8.504 -56.164  0.00  0.00    +0.145 C 
BRANCH   5   6
ATOM      6  N   ARG A   1      21.344  -9.406 -57.132  0.00  0.00    -0.238 NA
ATOM      7  H   ARG A   1      21.348 -10.429 -56.943  0.00  0.00    +0.142 HD
ENDBRANCH   5   6
BRANCH   5   8
ATOM      8  CB  ARG A   1      19.583  -9.209 -55.435  0.00  0.00    +0.030 C 
BRANCH   8   9
ATOM      9  CG  ARG A   1      18.432  -9.568 -56.380  0.00  0.00    +0.045 C 
BRANCH   9  10
ATOM     10  CD  ARG A   1      17.317 -10.355 -55.707  0.00  0.00    +0.174 C 
BRANCH  10  11
ATOM     11  NE  ARG A   1      16.558  -9.547 -54.763  0.00  0.00    -0.265 N 
ATOM     12  CZ  ARG A   1      15.544  -9.993 -54.028  0.00  0.00    +0.342 C 
ATOM     13  NH2 ARG A   1      14.929  -9.174 -53.182  0.00  0.00    -0.292 N 
ATOM     14 HH21 ARG A   1      14.136  -9.521 -52.606  0.00  0.00    +0.255 HD
ATOM     15 HH22 ARG A   1      15.241  -8.186 -53.095  0.00  0.00    +0.255 HD
ATOM     16  NH1 ARG A   1      15.138 -11.251 -54.126  0.00  0.00    -0.292 N 
ATOM     17 HH11 ARG A   1      14.344 -11.588 -53.545  0.00  0.00    +0.255 HD
ATOM     18 HH12 ARG A   1      15.614 -11.901 -54.783  0.00  0.00    +0.255 HD
ATOM     19  HE  ARG A   1      16.829  -8.549 -54.656  0.00  0.00    +0.259 HD
ENDBRANCH  10  11
ENDBRANCH   9  10
ENDBRANCH   8   9
ENDBRANCH   5   8
ENDBRANCH   1   5
BRANCH   3  20
ATOM     20  CA  THR A   2      23.701  -6.446 -55.001  0.00  0.00    +0.176 C 
BRANCH  20  21
ATOM     21  C   THR A   2      24.212  -5.312 -55.864  0.00  0.00    +0.243 C 
ATOM     22  N   GLY A   3      25.083  -4.490 -55.305  0.00  0.00    -0.296 N 
ATOM     23  H   GLY A   3      25.412  -4.684 -54.338  0.00  0.00    +0.150 HD
ATOM     24  O   THR A   2      23.823  -5.193 -57.030  0.00  0.00    -0.273 OA
BRANCH  22  25
ATOM     25  CA  GLY A   3      25.596  -3.316 -56.008  0.00  0.00    +0.163 C 
BRANCH  25  26
ATOM     26  C   GLY A   3      26.412  -3.710 -57.219  0.00  0.00    +0.229 C 
ATOM     27  O   GLY A   3      26.976  -4.798 -57.258  0.00  0.00    -0.286 OA
ENDBRANCH  25  26
ENDBRANCH  22  25
ENDBRANCH  20  21
BRANCH  20  28
ATOM     28  CB  THR A   2      24.839  -7.411 -54.574  0.00  0.00    +0.137 C 
ATOM     29  CG2 THR A   2      25.651  -7.908 -55.763  0.00  0.00    +0.034 C 
BRANCH  28  30
ATOM     30  OG1 THR A   2      25.704  -6.753 -53.649  0.00  0.00    -0.382 OA
ATOM     31  HG1 THR A   2      26.096  -5.951 -54.078  0.00  0.00    +0.210 HD
ENDBRANCH  28  30
ENDBRANCH  20  28
ENDBRANCH   3  20
TORSDOF 12
REMARK  Name = ../refined-set-2016/4ca8/4ca8_pocket.pdb
REMARK  304 active torsions:
REMARK  status: ('A' for Active; 'I' for Inactive)
REMARK    1  A    between atoms: _1  and  _3
REMARK    2  A    between atoms: _3  and  _4
REMARK    3  A    between atoms: _3  and  _6
REMARK    4  A    between atoms: _6  and  _7
REMARK    5  A    between atoms: _7  and  _8
REMARK    6  A    between atoms: _11  and  _13
REMARK    7  A    between atoms: _13  and  _14
REMARK    8  A    between atoms: _13  and  _16
REMARK    9  A    between atoms: _16  and  _17
REMARK   10  A    between atoms: _17  and  _18
REMARK   11  A    between atoms: _21  and  _23
REMARK   12  A    between atoms: _23  and  _24
REMARK   13  A    between atoms: _23  and  _26
REMARK   14  A    between atoms: _26  and  _27
REMARK   15  A    between atoms: _32  and  _34
REMARK   16  A    between atoms: _34  and  _35
REMARK   17  A    between atoms: _34  and  _37
REMARK   18  A    between atoms: _37  and  _38
REMARK   19  A    between atoms: _48  and  _50
REMARK   20  A    between atoms: _50  and  _51
REMARK   21  A    between atoms: _50  and  _53
REMARK   22  A    between atoms: _53  and  _54
REMARK   23  A    between atoms: _54  and  _55
REMARK   24  A    between atoms: _60  and  _62
REMARK   25  A    between atoms: _62  and  _63
REMARK   26  A    between atoms: _62  and  _65
REMARK   27  A    between atoms: _65  and  _66
REMARK   28  A    between atoms: _66  and  _67
REMARK   29  A    between atoms: _72  and  _74
REMARK   30  A    between atoms: _74  and  _75
REMARK   31  A    between atoms: _74  and  _77
REMARK   32  A    between atoms: _77  and  _78
REMARK   33  A    between atoms: _80  and  _82
REMARK   34  A    between atoms: _82  and  _83
REMARK   35  A    between atoms: _82  and  _85
REMARK   36  A    between atoms: _85  and  _86
REMARK   37  A    between atoms: _86  and  _87
REMARK   38  A    between atoms: _90  and  _92
REMARK   39  A    between atoms: _92  and  _93
REMARK   40  A    between atoms: _92  and  _95
REMARK   41  A    between atoms: _98  and  _100
REMARK   42  A    between atoms: _100  and  _101
REMARK   43  A    between atoms: _100  and  _103
REMARK   44  A    between atoms: _105  and  _107
REMARK   45  A    between atoms: _107  and  _108
REMARK   46  A    between atoms: _107  and  _110
REMARK   47  A    between atoms: _110  and  _111
REMARK   48  A    between atoms: _116  and  _118
REMARK   49  A    between atoms: _118  and  _119
REMARK   50  A    between atoms: _122  and  _124
REMARK   51  A    between atoms: _124  and  _125
REMARK   52  A    between atoms: _124  and  _127
REMARK   53  A    between atoms: _127  and  _128
REMARK   54  A    between atoms: _130  and  _132
REMARK   55  A    between atoms: _132  and  _133
REMARK   56  A    between atoms: _136  and  _138
REMARK   57  A    between atoms: _138  and  _139
REMARK   58  A    between atoms: _138  and  _141
REMARK   59  A    between atoms: _141  and  _142
REMARK   60  A    between atoms: _152  and  _154
REMARK   61  A    between atoms: _154  and  _155
REMARK   62  A    between atoms: _154  and  _157
REMARK   63  A    between atoms: _157  and  _158
REMARK   64  A    between atoms: _161  and  _163
REMARK   65  A    between atoms: _163  and  _164
REMARK   66  A    between atoms: _163  and  _166
REMARK   67  A    between atoms: _166  and  _167
REMARK   68  A    between atoms: _172  and  _173
REMARK   69  A    between atoms: _175  and  _177
REMARK   70  A    between atoms: _177  and  _178
REMARK   71  A    between atoms: _177  and  _180
REMARK   72  A    between atoms: _180  and  _181
REMARK   73  A    between atoms: _181  and  _182
REMARK   74  A    between atoms: _182  and  _183
REMARK   75  A    between atoms: _192  and  _194
REMARK   76  A    between atoms: _194  and  _195
REMARK   77  A    between atoms: _194  and  _197
REMARK   78  A    between atoms: _197  and  _198
REMARK   79  A    between atoms: _201  and  _203
REMARK   80  A    between atoms: _203  and  _204
REMARK   81  A    between atoms: _203  and  _206
REMARK   82  A    between atoms: _206  and  _207
REMARK   83  A    between atoms: _207  and  _208
REMARK   84  A    between atoms: _208  and  _209
REMARK   85  A    between atoms: _209  and  _210
REMARK   86  A    between atoms: _214  and  _216
REMARK   87  A    between atoms: _216  and  _217
REMARK   88  A    between atoms: _216  and  _219
REMARK   89  A    between atoms: _219  and  _220
REMARK   90  A    between atoms: _220  and  _221
REMARK   91  A    between atoms: _226  and  _228
REMARK   92  A    between atoms: _228  and  _229
REMARK   93  A    between atoms: _228  and  _231
REMARK   94  A    between atoms: _231  and  _232
REMARK   95  A    between atoms: _232  and  _233
REMARK   96  A    between atoms: _233  and  _234
REMARK   97  A    between atoms: _243  and  _245
REMARK   98  A    between atoms: _245  and  _246
REMARK   99  A    between atoms: _245  and  _248
REMARK  100  A    between atoms: _248  and  _249
REMARK  101  A    between atoms: _252  and  _254
REMARK  102  A    between atoms: _254  and  _255
REMARK  103  A    between atoms: _254  and  _257
REMARK  104  A    between atoms: _257  and  _258
REMARK  105  A    between atoms: _258  and  _259
REMARK  106  A    between atoms: _264  and  _266
REMARK  107  A    between atoms: _266  and  _267
REMARK  108  A    between atoms: _266  and  _269
REMARK  109  A    between atoms: _269  and  _270
REMARK  110  A    between atoms: _273  and  _275
REMARK  111  A    between atoms: _275  and  _276
REMARK  112  A    between atoms: _275  and  _278
REMARK  113  A    between atoms: _278  and  _279
REMARK  114  A    between atoms: _279  and  _280
REMARK  115  A    between atoms: _285  and  _287
REMARK  116  A    between atoms: _287  and  _288
REMARK  117  A    between atoms: _287  and  _290
REMARK  118  A    between atoms: _290  and  _291
REMARK  119  A    between atoms: _294  and  _296
REMARK  120  A    between atoms: _296  and  _297
REMARK  121  A    between atoms: _296  and  _299
REMARK  122  A    between atoms: _299  and  _300
REMARK  123  A    between atoms: _306  and  _308
REMARK  124  A    between atoms: _308  and  _309
REMARK  125  A    between atoms: _308  and  _311
REMARK  126  A    between atoms: _311  and  _312
REMARK  127  A    between atoms: _315  and  _317
REMARK  128  A    between atoms: _317  and  _318
REMARK  129  A    between atoms: _317  and  _320
REMARK  130  A    between atoms: _323  and  _325
REMARK  131  A    between atoms: _325  and  _326
REMARK  132  A    between atoms: _325  and  _328
REMARK  133  A    between atoms: _328  and  _329
REMARK  134  A    between atoms: _334  and  _336
REMARK  135  A    between atoms: _347  and  _350
REMARK  136  A    between atoms: _350  and  _351
REMARK  137  A    between atoms: _351  and  _352
REMARK  138  A    between atoms: _357  and  _360
REMARK  139  A    between atoms: _360  and  _361
REMARK  140  A    between atoms: _371  and  _372
REMARK  141  A    between atoms: _380  and  _382
REMARK  142  A    between atoms: _382  and  _383
REMARK  143  A    between atoms: _382  and  _385
REMARK  144  A    between atoms: _385  and  _386
REMARK  145  A    between atoms: _389  and  _391
REMARK  146  A    between atoms: _391  and  _392
REMARK  147  A    between atoms: _391  and  _394
REMARK  148  A    between atoms: _394  and  _395
REMARK  149  A    between atoms: _400  and  _401
REMARK  150  A    between atoms: _403  and  _405
REMARK  151  A    between atoms: _405  and  _406
REMARK  152  A    between atoms: _405  and  _408
REMARK  153  A    between atoms: _408  and  _409
REMARK  154  A    between atoms: _415  and  _417
REMARK  155  A    between atoms: _417  and  _418
REMARK  156  A    between atoms: _417  and  _420
REMARK  157  A    between atoms: _420  and  _421
REMARK  158  A    between atoms: _426  and  _427
REMARK  159  A    between atoms: _429  and  _431
REMARK  160  A    between atoms: _431  and  _432
REMARK  161  A    between atoms: _431  and  _434
REMARK  162  A    between atoms: _434  and  _435
REMARK  163  A    between atoms: _435  and  _436
REMARK  164  A    between atoms: _436  and  _437
REMARK  165  A    between atoms: _446  and  _448
REMARK  166  A    between atoms: _448  and  _449
REMARK  167  A    between atoms: _448  and  _451
REMARK  168  A    between atoms: _451  and  _452
REMARK  169  A    between atoms: _455  and  _457
REMARK  170  A    between atoms: _457  and  _458
REMARK  171  A    between atoms: _460  and  _462
REMARK  172  A    between atoms: _462  and  _463
REMARK  173  A    between atoms: _462  and  _465
REMARK  174  A    between atoms: _465  and  _466
REMARK  175  A    between atoms: _472  and  _473
REMARK  176  A    between atoms: _478  and  _480
REMARK  177  A    between atoms: _480  and  _481
REMARK  178  A    between atoms: _483  and  _485
REMARK  179  A    between atoms: _485  and  _486
REMARK  180  A    between atoms: _485  and  _488
REMARK  181  A    between atoms: _488  and  _489
REMARK  182  A    between atoms: _495  and  _497
REMARK  183  A    between atoms: _497  and  _498
REMARK  184  A    between atoms: _497  and  _500
REMARK  185  A    between atoms: _500  and  _501
REMARK  186  A    between atoms: _506  and  _508
REMARK  187  A    between atoms: _508  and  _509
REMARK  188  A    between atoms: _508  and  _511
REMARK  189  A    between atoms: _511  and  _512
REMARK  190  A    between atoms: _512  and  _513
REMARK  191  A    between atoms: _513  and  _514
REMARK  192  A    between atoms: _514  and  ZN_788
REMARK  193  A    between atoms: _516  and  _518
REMARK  194  A    between atoms: _518  and  _519
REMARK  195  A    between atoms: _522  and  _524
REMARK  196  A    between atoms: _524  and  _525
REMARK  197  A    between atoms: _527  and  _529
REMARK  198  A    between atoms: _529  and  _530
REMARK  199  A    between atoms: _529  and  _532
REMARK  200  A    between atoms: _532  and  _533
REMARK  201  A    between atoms: _536  and  _538
REMARK  202  A    between atoms: _538  and  _539
REMARK  203  A    between atoms: _538  and  _541
REMARK  204  A    between atoms: _544  and  _546
REMARK  205  A    between atoms: _546  and  _547
REMARK  206  A    between atoms: _546  and  _549
REMARK  207  A    between atoms: _549  and  _550
REMARK  208  A    between atoms: _552  and  _554
REMARK  209  A    between atoms: _554  and  _555
REMARK  210  A    between atoms: _554  and  _557
REMARK  211  A    between atoms: _557  and  _558
REMARK  212  A    between atoms: _561  and  _563
REMARK  213  A    between atoms: _563  and  _564
REMARK  214  A    between atoms: _563  and  _566
REMARK  215  A    between atoms: _566  and  _567
REMARK  216  A    between atoms: _570  and  _572
REMARK  217  A    between atoms: _572  and  _573
REMARK  218  A    between atoms: _572  and  _575
REMARK  219  A    between atoms: _575  and  _576
REMARK  220  A    between atoms: _576  and  _577
REMARK  221  A    between atoms: _577  and  _578
REMARK  222  A    between atoms: _578  and  _579
REMARK  223  A    between atoms: _583  and  _585
REMARK  224  A    between atoms: _585  and  _586
REMARK  225  A    between atoms: _585  and  _588
REMARK  226  A    between atoms: _588  and  _589
REMARK  227  A    between atoms: _595  and  _597
REMARK  228  A    between atoms: _597  and  _598
REMARK  229  A    between atoms: _597  and  _600
REMARK  230  A    between atoms: _600  and  _601
REMARK  231  A    between atoms: _607  and  _609
REMARK  232  A    between atoms: _609  and  _610
REMARK  233  A    between atoms: _613  and  _615
REMARK  234  A    between atoms: _615  and  _616
REMARK  235  A    between atoms: _615  and  _618
REMARK  236  A    between atoms: _618  and  _619
REMARK  237  A    between atoms: _619  and  _620
REMARK  238  A    between atoms: _622  and  _624
REMARK  239  A    between atoms: _624  and  _625
REMARK  240  A    between atoms: _624  and  _627
REMARK  241  A    between atoms: _627  and  _628
REMARK  242  A    between atoms: _628  and  _629
REMARK  243  A    between atoms: _629  and  _630
REMARK  244  A    between atoms: _630  and  _631
REMARK  245  A    between atoms: _635  and  _637
REMARK  246  A    between atoms: _637  and  _638
REMARK  247  A    between atoms: _637  and  _640
REMARK  248  A    between atoms: _640  and  _641
REMARK  249  A    between atoms: _646  and  _647
REMARK  250  A    between atoms: _649  and  _651
REMARK  251  A    between atoms: _651  and  _652
REMARK  252  A    between atoms: _651  and  _654
REMARK  253  A    between atoms: _654  and  _655
REMARK  254  A    between atoms: _660  and  _662
REMARK  255  A    between atoms: _662  and  _663
REMARK  256  A    between atoms: _662  and  _665
REMARK  257  A    between atoms: _665  and  _666
REMARK  258  A    between atoms: _669  and  _671
REMARK  259  A    between atoms: _671  and  _672
REMARK  260  A    between atoms: _675  and  _677
REMARK  261  A    between atoms: _677  and  _678
REMARK  262  A    between atoms: _677  and  _680
REMARK  263  A    between atoms: _680  and  _681
REMARK  264  A    between atoms: _684  and  _686
REMARK  265  A    between atoms: _686  and  _687
REMARK  266  A    between atoms: _686  and  _689
REMARK  267  A    between atoms: _692  and  _694
REMARK  268  A    between atoms: _694  and  _695
REMARK  269  A    between atoms: _694  and  _697
REMARK  270  A    between atoms: _697  and  _698
REMARK  271  A    between atoms: _698  and  _699
REMARK  272  A    between atoms: _702  and  _704
REMARK  273  A    between atoms: _704  and  _705
REMARK  274  A    between atoms: _704  and  _707
REMARK  275  A    between atoms: _707  and  _708
REMARK  276  A    between atoms: _713  and  _714
REMARK  277  A    between atoms: _716  and  _718
REMARK  278  A    between atoms: _718  and  _719
REMARK  279  A    between atoms: _718  and  _721
REMARK  280  A    between atoms: _721  and  _722
REMARK  281  A    between atoms: _722  and  _723
REMARK  282  A    between atoms: _723  and  _724
REMARK  283  A    between atoms: _733  and  _735
REMARK  284  A    between atoms: _735  and  _736
REMARK  285  A    between atoms: _735  and  _738
REMARK  286  A    between atoms: _738  and  _739
REMARK  287  A    between atoms: _744  and  _745
REMARK  288  A    between atoms: _747  and  _749
REMARK  289  A    between atoms: _749  and  _750
REMARK  290  A    between atoms: _749  and  _752
REMARK  291  A    between atoms: _752  and  _753
REMARK  292  A    between atoms: _756  and  _758
REMARK  293  A    between atoms: _758  and  _759
REMARK  294  A    between atoms: _758  and  _761
REMARK  295  A    between atoms: _761  and  _762
REMARK  296  A    between atoms: _764  and  _766
REMARK  297  A    between atoms: _766  and  _767
REMARK  298  A    between atoms: _766  and  _769
REMARK  299  A    between atoms: _769  and  _770
REMARK  300  A    between atoms: _776  and  _778
REMARK  301  A    between atoms: _778  and  _779
REMARK  302  A    between atoms: _778  and  _781
REMARK  303  A    between atoms: _781  and  _782
REMARK  304  A    between atoms: _782  and  _783
REMARK                            x       y       z     vdW  Elec       q    Type
REMARK                         _______ _______ _______ _____ _____    ______ ____
ROOT
ATOM      1  CA  ASP A   2      25.477  10.132 -50.464  0.00  0.00    +0.160 C 
ENDROOT
BRANCH   1   4
ATOM      2  C   GLY A   1      23.268   9.107 -50.446  0.00  0.00    +0.240 C 
ATOM      3  O   GLY A   1      22.734  10.176 -50.165  0.00  0.00    -0.274 OA
ATOM      4  N   ASP A   2      24.582   8.977 -50.601  0.00  0.00    -0.297 N 
ATOM      5  H   ASP A   2      24.982   8.043 -50.823  0.00  0.00    +0.150 HD
BRANCH   2   6
ATOM      6  CA  GLY A   1      22.421   7.866 -50.647  0.00  0.00    +0.169 C 
BRANCH   6   7
ATOM      7  N   GLY A   1      22.952   6.975 -51.649  0.00  0.00    -0.236 NA
ATOM      8  H   GLY A   1      23.288   6.035 -51.358  0.00  0.00    +0.142 HD
ENDBRANCH   6   7
ENDBRANCH   2   6
ENDBRANCH   1   4
BRANCH   1   9
ATOM      9  C   ASP A   2      25.264  11.173 -51.566  0.00  0.00    +0.241 C 
ATOM     10  O   ASP A   2      25.511  12.361 -51.352  0.00  0.00    -0.273 OA
ATOM     11  N   VAL A   3      24.805  10.742 -52.741  0.00  0.00    -0.298 N 
ATOM     12  H   VAL A   3      24.683   9.723 -52.910  0.00  0.00    +0.150 HD
BRANCH  11  13
ATOM     13  CA  VAL A   3      24.475  11.695 -53.785  0.00  0.00    +0.137 C 
BRANCH  13  14
ATOM     14  CB  VAL A   3      24.069  11.003 -55.097  0.00  0.00    +0.026 C 
ATOM     15  CG2 VAL A   3      25.234  10.201 -55.667  0.00  0.00    +0.002 C 
ATOM     16  CG1 VAL A   3      23.583  12.036 -56.103  0.00  0.00    +0.002 C 
ENDBRANCH  13  14
BRANCH  13  17
ATOM     17  C   VAL A   3      23.332  12.583 -53.294  0.00  0.00    +0.227 C 
ATOM     18  O   VAL A   3      23.348  13.796 -53.488  0.00  0.00    -0.286 OA
ENDBRANCH  13  17
ENDBRANCH  11  13
ENDBRANCH   1   9
BRANCH   1  19
ATOM     19  CB  ASP A   2      26.943   9.693 -50.434  0.00  0.00    +0.143 C 
BRANCH  19  20
ATOM     20  CG  ASP A   2      27.398   9.289 -49.049  0.00  0.00    +0.367 C 
ATOM     21  OD2 ASP A   2      26.542   8.913 -48.223  0.00  0.00    -0.246 OA
ATOM     22  OD1 ASP A   2      28.616   9.334 -48.788  0.00  0.00    -0.246 OA
ENDBRANCH  19  20
ENDBRANCH   1  19
TORSDOF 9
REMARK  Name = ../refined-set-2016/4ca8/4ca8_pocket.pdb
REMARK  304 active torsions:
REMARK  status: ('A' for Active; 'I' for Inactive)
REMARK    1  A    between atoms: _1  and  _3
REMARK    2  A    between atoms: _3  and  _4
REMARK    3  A    between atoms: _3  and  _6
REMARK    4  A    between atoms: _6  and  _7
REMARK    5  A    between atoms: _7  and  _8
REMARK    6  A    between atoms: _11  and  _13
REMARK    7  A    between atoms: _13  and  _14
REMARK    8  A    between atoms: _13  and  _16
REMARK    9  A    between atoms: _16  and  _17
REMARK   10  A    between atoms: _17  and  _18
REMARK   11  A    between atoms: _21  and  _23
REMARK   12  A    between atoms: _23  and  _24
REMARK   13  A    between atoms: _23  and  _26
REMARK   14  A    between atoms: _26  and  _27
REMARK   15  A    between atoms: _32  and  _34
REMARK   16  A    between atoms: _34  and  _35
REMARK   17  A    between atoms: _34  and  _37
REMARK   18  A    between atoms: _37  and  _38
REMARK   19  A    between atoms: _48  and  _50
REMARK   20  A    between atoms: _50  and  _51
REMARK   21  A    between atoms: _50  and  _53
REMARK   22  A    between atoms: _53  and  _54
REMARK   23  A    between atoms: _54  and  _55
REMARK   24  A    between atoms: _60  and  _62
REMARK   25  A    between atoms: _62  and  _63
REMARK   26  A    between atoms: _62  and  _65
REMARK   27  A    between atoms: _65  and  _66
REMARK   28  A    between atoms: _66  and  _67
REMARK   29  A    between atoms: _72  and  _74
REMARK   30  A    between atoms: _74  and  _75
REMARK   31  A    between atoms: _74  and  _77
REMARK   32  A    between atoms: _77  and  _78
REMARK   33  A    between atoms: _80  and  _82
REMARK   34  A    between atoms: _82  and  _83
REMARK   35  A    between atoms: _82  and  _85
REMARK   36  A    between atoms: _85  and  _86
REMARK   37  A    between atoms: _86  and  _87
REMARK   38  A    between atoms: _90  and  _92
REMARK   39  A    between atoms: _92  and  _93
REMARK   40  A    between atoms: _92  and  _95
REMARK   41  A    between atoms: _98  and  _100
REMARK   42  A    between atoms: _100  and  _101
REMARK   43  A    between atoms: _100  and  _103
REMARK   44  A    between atoms: _105  and  _107
REMARK   45  A    between atoms: _107  and  _108
REMARK   46  A    between atoms: _107  and  _110
REMARK   47  A    between atoms: _110  and  _111
REMARK   48  A    between atoms: _116  and  _118
REMARK   49  A    between atoms: _118  and  _119
REMARK   50  A    between atoms: _122  and  _124
REMARK   51  A    between atoms: _124  and  _125
REMARK   52  A    between atoms: _124  and  _127
REMARK   53  A    between atoms: _127  and  _128
REMARK   54  A    between atoms: _130  and  _132
REMARK   55  A    between atoms: _132  and  _133
REMARK   56  A    between atoms: _136  and  _138
REMARK   57  A    between atoms: _138  and  _139
REMARK   58  A    between atoms: _138  and  _141
REMARK   59  A    between atoms: _141  and  _142
REMARK   60  A    between atoms: _152  and  _154
REMARK   61  A    between atoms: _154  and  _155
REMARK   62  A    between atoms: _154  and  _157
REMARK   63  A    between atoms: _157  and  _158
REMARK   64  A    between atoms: _161  and  _163
REMARK   65  A    between atoms: _163  and  _164
REMARK   66  A    between atoms: _163  and  _166
REMARK   67  A    between atoms: _166  and  _167
REMARK   68  A    between atoms: _172  and  _173
REMARK   69  A    between atoms: _175  and  _177
REMARK   70  A    between atoms: _177  and  _178
REMARK   71  A    between atoms: _177  and  _180
REMARK   72  A    between atoms: _180  and  _181
REMARK   73  A    between atoms: _181  and  _182
REMARK   74  A    between atoms: _182  and  _183
REMARK   75  A    between atoms: _192  and  _194
REMARK   76  A    between atoms: _194  and  _195
REMARK   77  A    between atoms: _194  and  _197
REMARK   78  A    between atoms: _197  and  _198
REMARK   79  A    between atoms: _201  and  _203
REMARK   80  A    between atoms: _203  and  _204
REMARK   81  A    between atoms: _203  and  _206
REMARK   82  A    between atoms: _206  and  _207
REMARK   83  A    between atoms: _207  and  _208
REMARK   84  A    between atoms: _208  and  _209
REMARK   85  A    between atoms: _209  and  _210
REMARK   86  A    between atoms: _214  and  _216
REMARK   87  A    between atoms: _216  and  _217
REMARK   88  A    between atoms: _216  and  _219
REMARK   89  A    between atoms: _219  and  _220
REMARK   90  A    between atoms: _220  and  _221
REMARK   91  A    between atoms: _226  and  _228
REMARK   92  A    between atoms: _228  and  _229
REMARK   93  A    between atoms: _228  and  _231
REMARK   94  A    between atoms: _231  and  _232
REMARK   95  A    between atoms: _232  and  _233
REMARK   96  A    between atoms: _233  and  _234
REMARK   97  A    between atoms: _243  and  _245
REMARK   98  A    between atoms: _245  and  _246
REMARK   99  A    between atoms: _245  and  _248
REMARK  100  A    between atoms: _248  and  _249
REMARK  101  A    between atoms: _252  and  _254
REMARK  102  A    between atoms: _254  and  _255
REMARK  103  A    between atoms: _254  and  _257
REMARK  104  A    between atoms: _257  and  _258
REMARK  105  A    between atoms: _258  and  _259
REMARK  106  A    between atoms: _264  and  _266
REMARK  107  A    between atoms: _266  and  _267
REMARK  108  A    between atoms: _266  and  _269
REMARK  109  A    between atoms: _269  and  _270
REMARK  110  A    between atoms: _273  and  _275
REMARK  111  A    between atoms: _275  and  _276
REMARK  112  A    between atoms: _275  and  _278
REMARK  113  A    between atoms: _278  and  _279
REMARK  114  A    between atoms: _279  and  _280
REMARK  115  A    between atoms: _285  and  _287
REMARK  116  A    between atoms: _287  and  _288
REMARK  117  A    between atoms: _287  and  _290
REMARK  118  A    between atoms: _290  and  _291
REMARK  119  A    between atoms: _294  and  _296
REMARK  120  A    between atoms: _296  and  _297
REMARK  121  A    between atoms: _296  and  _299
REMARK  122  A    between atoms: _299  and  _300
REMARK  123  A    between atoms: _306  and  _308
REMARK  124  A    between atoms: _308  and  _309
REMARK  125  A    between atoms: _308  and  _311
REMARK  126  A    between atoms: _311  and  _312
REMARK  127  A    between atoms: _315  and  _317
REMARK  128  A    between atoms: _317  and  _318
REMARK  129  A    between atoms: _317  and  _320
REMARK  130  A    between atoms: _323  and  _325
REMARK  131  A    between atoms: _325  and  _326
REMARK  132  A    between atoms: _325  and  _328
REMARK  133  A    between atoms: _328  and  _329
REMARK  134  A    between atoms: _334  and  _336
REMARK  135  A    between atoms: _347  and  _350
REMARK  136  A    between atoms: _350  and  _351
REMARK  137  A    between atoms: _351  and  _352
REMARK  138  A    between atoms: _357  and  _360
REMARK  139  A    between atoms: _360  and  _361
REMARK  140  A    between atoms: _371  and  _372
REMARK  141  A    between atoms: _380  and  _382
REMARK  142  A    between atoms: _382  and  _383
REMARK  143  A    between atoms: _382  and  _385
REMARK  144  A    between atoms: _385  and  _386
REMARK  145  A    between atoms: _389  and  _391
REMARK  146  A    between atoms: _391  and  _392
REMARK  147  A    between atoms: _391  and  _394
REMARK  148  A    between atoms: _394  and  _395
REMARK  149  A    between atoms: _400  and  _401
REMARK  150  A    between atoms: _403  and  _405
REMARK  151  A    between atoms: _405  and  _406
REMARK  152  A    between atoms: _405  and  _408
REMARK  153  A    between atoms: _408  and  _409
REMARK  154  A    between atoms: _415  and  _417
REMARK  155  A    between atoms: _417  and  _418
REMARK  156  A    between atoms: _417  and  _420
REMARK  157  A    between atoms: _420  and  _421
REMARK  158  A    between atoms: _426  and  _427
REMARK  159  A    between atoms: _429  and  _431
REMARK  160  A    between atoms: _431  and  _432
REMARK  161  A    between atoms: _431  and  _434
REMARK  162  A    between atoms: _434  and  _435
REMARK  163  A    between atoms: _435  and  _436
REMARK  164  A    between atoms: _436  and  _437
REMARK  165  A    between atoms: _446  and  _448
REMARK  166  A    between atoms: _448  and  _449
REMARK  167  A    between atoms: _448  and  _451
REMARK  168  A    between atoms: _451  and  _452
REMARK  169  A    between atoms: _455  and  _457
REMARK  170  A    between atoms: _457  and  _458
REMARK  171  A    between atoms: _460  and  _462
REMARK  172  A    between atoms: _462  and  _463
REMARK  173  A    between atoms: _462  and  _465
REMARK  174  A    between atoms: _465  and  _466
REMARK  175  A    between atoms: _472  and  _473
REMARK  176  A    between atoms: _478  and  _480
REMARK  177  A    between atoms: _480  and  _481
REMARK  178  A    between atoms: _483  and  _485
REMARK  179  A    between atoms: _485  and  _486
REMARK  180  A    between atoms: _485  and  _488
REMARK  181  A    between atoms: _488  and  _489
REMARK  182  A    between atoms: _495  and  _497
REMARK  183  A    between atoms: _497  and  _498
REMARK  184  A    between atoms: _497  and  _500
REMARK  185  A    between atoms: _500  and  _501
REMARK  186  A    between atoms: _506  and  _508
REMARK  187  A    between atoms: _508  and  _509
REMARK  188  A    between atoms: _508  and  _511
REMARK  189  A    between atoms: _511  and  _512
REMARK  190  A    between atoms: _512  and  _513
REMARK  191  A    between atoms: _513  and  _514
REMARK  192  A    between atoms: _514  and  ZN_788
REMARK  193  A    between atoms: _516  and  _518
REMARK  194  A    between atoms: _518  and  _519
REMARK  195  A    between atoms: _522  and  _524
REMARK  196  A    between atoms: _524  and  _525
REMARK  197  A    between atoms: _527  and  _529
REMARK  198  A    between atoms: _529  and  _530
REMARK  199  A    between atoms: _529  and  _532
REMARK  200  A    between atoms: _532  and  _533
REMARK  201  A    between atoms: _536  and  _538
REMARK  202  A    between atoms: _538  and  _539
REMARK  203  A    between atoms: _538  and  _541
REMARK  204  A    between atoms: _544  and  _546
REMARK  205  A    between atoms: _546  and  _547
REMARK  206  A    between atoms: _546  and  _549
REMARK  207  A    between atoms: _549  and  _550
REMARK  208  A    between atoms: _552  and  _554
REMARK  209  A    between atoms: _554  and  _555
REMARK  210  A    between atoms: _554  and  _557
REMARK  211  A    between atoms: _557  and  _558
REMARK  212  A    between atoms: _561  and  _563
REMARK  213  A    between atoms: _563  and  _564
REMARK  214  A    between atoms: _563  and  _566
REMARK  215  A    between atoms: _566  and  _567
REMARK  216  A    between atoms: _570  and  _572
REMARK  217  A    between atoms: _572  and  _573
REMARK  218  A    between atoms: _572  and  _575
REMARK  219  A    between atoms: _575  and  _576
REMARK  220  A    between atoms: _576  and  _577
REMARK  221  A    between atoms: _577  and  _578
REMARK  222  A    between atoms: _578  and  _579
REMARK  223  A    between atoms: _583  and  _585
REMARK  224  A    between atoms: _585  and  _586
REMARK  225  A    between atoms: _585  and  _588
REMARK  226  A    between atoms: _588  and  _589
REMARK  227  A    between atoms: _595  and  _597
REMARK  228  A    between atoms: _597  and  _598
REMARK  229  A    between atoms: _597  and  _600
REMARK  230  A    between atoms: _600  and  _601
REMARK  231  A    between atoms: _607  and  _609
REMARK  232  A    between atoms: _609  and  _610
REMARK  233  A    between atoms: _613  and  _615
REMARK  234  A    between atoms: _615  and  _616
REMARK  235  A    between atoms: _615  and  _618
REMARK  236  A    between atoms: _618  and  _619
REMARK  237  A    between atoms: _619  and  _620
REMARK  238  A    between atoms: _622  and  _624
REMARK  239  A    between atoms: _624  and  _625
REMARK  240  A    between atoms: _624  and  _627
REMARK  241  A    between atoms: _627  and  _628
REMARK  242  A    between atoms: _628  and  _629
REMARK  243  A    between atoms: _629  and  _630
REMARK  244  A    between atoms: _630  and  _631
REMARK  245  A    between atoms: _635  and  _637
REMARK  246  A    between atoms: _637  and  _638
REMARK  247  A    between atoms: _637  and  _640
REMARK  248  A    between atoms: _640  and  _641
REMARK  249  A    between atoms: _646  and  _647
REMARK  250  A    between atoms: _649  and  _651
REMARK  251  A    between atoms: _651  and  _652
REMARK  252  A    between atoms: _651  and  _654
REMARK  253  A    between atoms: _654  and  _655
REMARK  254  A    between atoms: _660  and  _662
REMARK  255  A    between atoms: _662  and  _663
REMARK  256  A    between atoms: _662  and  _665
REMARK  257  A    between atoms: _665  and  _666
REMARK  258  A    between atoms: _669  and  _671
REMARK  259  A    between atoms: _671  and  _672
REMARK  260  A    between atoms: _675  and  _677
REMARK  261  A    between atoms: _677  and  _678
REMARK  262  A    between atoms: _677  and  _680
REMARK  263  A    between atoms: _680  and  _681
REMARK  264  A    between atoms: _684  and  _686
REMARK  265  A    between atoms: _686  and  _687
REMARK  266  A    between atoms: _686  and  _689
REMARK  267  A    between atoms: _692  and  _694
REMARK  268  A    between atoms: _694  and  _695
REMARK  269  A    between atoms: _694  and  _697
REMARK  270  A    between atoms: _697  and  _698
REMARK  271  A    between atoms: _698  and  _699
REMARK  272  A    between atoms: _702  and  _704
REMARK  273  A    between atoms: _704  and  _705
REMARK  274  A    between atoms: _704  and  _707
REMARK  275  A    between atoms: _707  and  _708
REMARK  276  A    between atoms: _713  and  _714
REMARK  277  A    between atoms: _716  and  _718
REMARK  278  A    between atoms: _718  and  _719
REMARK  279  A    between atoms: _718  and  _721
REMARK  280  A    between atoms: _721  and  _722
REMARK  281  A    between atoms: _722  and  _723
REMARK  282  A    between atoms: _723  and  _724
REMARK  283  A    between atoms: _733  and  _735
REMARK  284  A    between atoms: _735  and  _736
REMARK  285  A    between atoms: _735  and  _738
REMARK  286  A    between atoms: _738  and  _739
REMARK  287  A    between atoms: _744  and  _745
REMARK  288  A    between atoms: _747  and  _749
REMARK  289  A    between atoms: _749  and  _750
REMARK  290  A    between atoms: _749  and  _752
REMARK  291  A    between atoms: _752  and  _753
REMARK  292  A    between atoms: _756  and  _758
REMARK  293  A    between atoms: _758  and  _759
REMARK  294  A    between atoms: _758  and  _761
REMARK  295  A    between atoms: _761  and  _762
REMARK  296  A    between atoms: _764  and  _766
REMARK  297  A    between atoms: _766  and  _767
REMARK  298  A    between atoms: _766  and  _769
REMARK  299  A    between atoms: _769  and  _770
REMARK  300  A    between atoms: _776  and  _778
REMARK  301  A    between atoms: _778  and  _779
REMARK  302  A    between atoms: _778  and  _781
REMARK  303  A    between atoms: _781  and  _782
REMARK  304  A    between atoms: _782  and  _783
REMARK                            x       y       z     vdW  Elec       q    Type
REMARK                         _______ _______ _______ _____ _____    ______ ____
ROOT
ATOM      1  C   SER A   1      23.853  15.112 -49.268  0.00  0.00    +0.241 C 
ATOM      2  O   SER A   1      23.782  16.130 -48.587  0.00  0.00    -0.274 OA
ATOM      3  N   LEU A   2      24.540  15.052 -50.405  0.00  0.00    -0.298 N 
ATOM      4  H   LEU A   2      24.607  14.146 -50.911  0.00  0.00    +0.150 HD
ENDROOT
BRANCH   1   5
ATOM      5  CA  SER A   1      23.088  13.855 -48.849  0.00  0.00    +0.174 C 
BRANCH   5   6
ATOM      6  N   SER A   1      22.566  13.094 -50.007  0.00  0.00    -0.236 NA
ATOM      7  H   SER A   1      22.845  12.099 -50.127  0.00  0.00    +0.142 HD
ENDBRANCH   5   6
BRANCH   5   8
ATOM      8  CB  SER A   1      23.952  12.977 -47.939  0.00  0.00    +0.163 C 
BRANCH   8   9
ATOM      9  OG  SER A   1      23.151  12.022 -47.257  0.00  0.00    -0.380 OA
ATOM     10  H   SER A   1      23.727  11.465 -46.675  0.00  0.00    +0.211 HD
ENDBRANCH   8   9
ENDBRANCH   5   8
ENDBRANCH   1   5
BRANCH   3  11
ATOM     11  CA  LEU A   2      25.199  16.221 -50.957  0.00  0.00    +0.137 C 
BRANCH  11  12
ATOM     12  C   LEU A   2      24.228  17.374 -51.244  0.00  0.00    +0.227 C 
ATOM     13  O   LEU A   2      24.534  18.521 -50.944  0.00  0.00    -0.286 OA
ENDBRANCH  11  12
BRANCH  11  14
ATOM     14  CB  LEU A   2      25.960  15.872 -52.244  0.00  0.00    +0.028 C 
BRANCH  14  15
ATOM     15  CG  LEU A   2      27.342  15.238 -52.062  0.00  0.00    +0.002 C 
ATOM     16  CD2 LEU A   2      28.283  16.170 -51.309  0.00  0.00    +0.000 C 
ATOM     17  CD1 LEU A   2      27.923  14.863 -53.422  0.00  0.00    +0.000 C 
ENDBRANCH  14  15
ENDBRANCH  11  14
ENDBRANCH   3  11
TORSDOF 8
REMARK  Name = ../refined-set-2016/4ca8/4ca8_pocket.pdb
REMARK  304 active torsions:
REMARK  status: ('A' for Active; 'I' for Inactive)
REMARK    1  A    between atoms: _1  and  _3
REMARK    2  A    between atoms: _3  and  _4
REMARK    3  A    between atoms: _3  and  _6
REMARK    4  A    between atoms: _6  and  _7
REMARK    5  A    between atoms: _7  and  _8
REMARK    6  A    between atoms: _11  and  _13
REMARK    7  A    between atoms: _13  and  _14
REMARK    8  A    between atoms: _13  and  _16
REMARK    9  A    between atoms: _16  and  _17
REMARK   10  A    between atoms: _17  and  _18
REMARK   11  A    between atoms: _21  and  _23
REMARK   12  A    between atoms: _23  and  _24
REMARK   13  A    between atoms: _23  and  _26
REMARK   14  A    between atoms: _26  and  _27
REMARK   15  A    between atoms: _32  and  _34
REMARK   16  A    between atoms: _34  and  _35
REMARK   17  A    between atoms: _34  and  _37
REMARK   18  A    between atoms: _37  and  _38
REMARK   19  A    between atoms: _48  and  _50
REMARK   20  A    between atoms: _50  and  _51
REMARK   21  A    between atoms: _50  and  _53
REMARK   22  A    between atoms: _53  and  _54
REMARK   23  A    between atoms: _54  and  _55
REMARK   24  A    between atoms: _60  and  _62
REMARK   25  A    between atoms: _62  and  _63
REMARK   26  A    between atoms: _62  and  _65
REMARK   27  A    between atoms: _65  and  _66
REMARK   28  A    between atoms: _66  and  _67
REMARK   29  A    between atoms: _72  and  _74
REMARK   30  A    between atoms: _74  and  _75
REMARK   31  A    between atoms: _74  and  _77
REMARK   32  A    between atoms: _77  and  _78
REMARK   33  A    between atoms: _80  and  _82
REMARK   34  A    between atoms: _82  and  _83
REMARK   35  A    between atoms: _82  and  _85
REMARK   36  A    between atoms: _85  and  _86
REMARK   37  A    between atoms: _86  and  _87
REMARK   38  A    between atoms: _90  and  _92
REMARK   39  A    between atoms: _92  and  _93
REMARK   40  A    between atoms: _92  and  _95
REMARK   41  A    between atoms: _98  and  _100
REMARK   42  A    between atoms: _100  and  _101
REMARK   43  A    between atoms: _100  and  _103
REMARK   44  A    between atoms: _105  and  _107
REMARK   45  A    between atoms: _107  and  _108
REMARK   46  A    between atoms: _107  and  _110
REMARK   47  A    between atoms: _110  and  _111
REMARK   48  A    between atoms: _116  and  _118
REMARK   49  A    between atoms: _118  and  _119
REMARK   50  A    between atoms: _122  and  _124
REMARK   51  A    between atoms: _124  and  _125
REMARK   52  A    between atoms: _124  and  _127
REMARK   53  A    between atoms: _127  and  _128
REMARK   54  A    between atoms: _130  and  _132
REMARK   55  A    between atoms: _132  and  _133
REMARK   56  A    between atoms: _136  and  _138
REMARK   57  A    between atoms: _138  and  _139
REMARK   58  A    between atoms: _138  and  _141
REMARK   59  A    between atoms: _141  and  _142
REMARK   60  A    between atoms: _152  and  _154
REMARK   61  A    between atoms: _154  and  _155
REMARK   62  A    between atoms: _154  and  _157
REMARK   63  A    between atoms: _157  and  _158
REMARK   64  A    between atoms: _161  and  _163
REMARK   65  A    between atoms: _163  and  _164
REMARK   66  A    between atoms: _163  and  _166
REMARK   67  A    between atoms: _166  and  _167
REMARK   68  A    between atoms: _172  and  _173
REMARK   69  A    between atoms: _175  and  _177
REMARK   70  A    between atoms: _177  and  _178
REMARK   71  A    between atoms: _177  and  _180
REMARK   72  A    between atoms: _180  and  _181
REMARK   73  A    between atoms: _181  and  _182
REMARK   74  A    between atoms: _182  and  _183
REMARK   75  A    between atoms: _192  and  _194
REMARK   76  A    between atoms: _194  and  _195
REMARK   77  A    between atoms: _194  and  _197
REMARK   78  A    between atoms: _197  and  _198
REMARK   79  A    between atoms: _201  and  _203
REMARK   80  A    between atoms: _203  and  _204
REMARK   81  A    between atoms: _203  and  _206
REMARK   82  A    between atoms: _206  and  _207
REMARK   83  A    between atoms: _207  and  _208
REMARK   84  A    between atoms: _208  and  _209
REMARK   85  A    between atoms: _209  and  _210
REMARK   86  A    between atoms: _214  and  _216
REMARK   87  A    between atoms: _216  and  _217
REMARK   88  A    between atoms: _216  and  _219
REMARK   89  A    between atoms: _219  and  _220
REMARK   90  A    between atoms: _220  and  _221
REMARK   91  A    between atoms: _226  and  _228
REMARK   92  A    between atoms: _228  and  _229
REMARK   93  A    between atoms: _228  and  _231
REMARK   94  A    between atoms: _231  and  _232
REMARK   95  A    between atoms: _232  and  _233
REMARK   96  A    between atoms: _233  and  _234
REMARK   97  A    between atoms: _243  and  _245
REMARK   98  A    between atoms: _245  and  _246
REMARK   99  A    between atoms: _245  and  _248
REMARK  100  A    between atoms: _248  and  _249
REMARK  101  A    between atoms: _252  and  _254
REMARK  102  A    between atoms: _254  and  _255
REMARK  103  A    between atoms: _254  and  _257
REMARK  104  A    between atoms: _257  and  _258
REMARK  105  A    between atoms: _258  and  _259
REMARK  106  A    between atoms: _264  and  _266
REMARK  107  A    between atoms: _266  and  _267
REMARK  108  A    between atoms: _266  and  _269
REMARK  109  A    between atoms: _269  and  _270
REMARK  110  A    between atoms: _273  and  _275
REMARK  111  A    between atoms: _275  and  _276
REMARK  112  A    between atoms: _275  and  _278
REMARK  113  A    between atoms: _278  and  _279
REMARK  114  A    between atoms: _279  and  _280
REMARK  115  A    between atoms: _285  and  _287
REMARK  116  A    between atoms: _287  and  _288
REMARK  117  A    between atoms: _287  and  _290
REMARK  118  A    between atoms: _290  and  _291
REMARK  119  A    between atoms: _294  and  _296
REMARK  120  A    between atoms: _296  and  _297
REMARK  121  A    between atoms: _296  and  _299
REMARK  122  A    between atoms: _299  and  _300
REMARK  123  A    between atoms: _306  and  _308
REMARK  124  A    between atoms: _308  and  _309
REMARK  125  A    between atoms: _308  and  _311
REMARK  126  A    between atoms: _311  and  _312
REMARK  127  A    between atoms: _315  and  _317
REMARK  128  A    between atoms: _317  and  _318
REMARK  129  A    between atoms: _317  and  _320
REMARK  130  A    between atoms: _323  and  _325
REMARK  131  A    between atoms: _325  and  _326
REMARK  132  A    between atoms: _325  and  _328
REMARK  133  A    between atoms: _328  and  _329
REMARK  134  A    between atoms: _334  and  _336
REMARK  135  A    between atoms: _347  and  _350
REMARK  136  A    between atoms: _350  and  _351
REMARK  137  A    between atoms: _351  and  _352
REMARK  138  A    between atoms: _357  and  _360
REMARK  139  A    between atoms: _360  and  _361
REMARK  140  A    between atoms: _371  and  _372
REMARK  141  A    between atoms: _380  and  _382
REMARK  142  A    between atoms: _382  and  _383
REMARK  143  A    between atoms: _382  and  _385
REMARK  144  A    between atoms: _385  and  _386
REMARK  145  A    between atoms: _389  and  _391
REMARK  146  A    between atoms: _391  and  _392
REMARK  147  A    between atoms: _391  and  _394
REMARK  148  A    between atoms: _394  and  _395
REMARK  149  A    between atoms: _400  and  _401
REMARK  150  A    between atoms: _403  and  _405
REMARK  151  A    between atoms: _405  and  _406
REMARK  152  A    between atoms: _405  and  _408
REMARK  153  A    between atoms: _408  and  _409
REMARK  154  A    between atoms: _415  and  _417
REMARK  155  A    between atoms: _417  and  _418
REMARK  156  A    between atoms: _417  and  _420
REMARK  157  A    between atoms: _420  and  _421
REMARK  158  A    between atoms: _426  and  _427
REMARK  159  A    between atoms: _429  and  _431
REMARK  160  A    between atoms: _431  and  _432
REMARK  161  A    between atoms: _431  and  _434
REMARK  162  A    between atoms: _434  and  _435
REMARK  163  A    between atoms: _435  and  _436
REMARK  164  A    between atoms: _436  and  _437
REMARK  165  A    between atoms: _446  and  _448
REMARK  166  A    between atoms: _448  and  _449
REMARK  167  A    between atoms: _448  and  _451
REMARK  168  A    between atoms: _451  and  _452
REMARK  169  A    between atoms: _455  and  _457
REMARK  170  A    between atoms: _457  and  _458
REMARK  171  A    between atoms: _460  and  _462
REMARK  172  A    between atoms: _462  and  _463
REMARK  173  A    between atoms: _462  and  _465
REMARK  174  A    between atoms: _465  and  _466
REMARK  175  A    between atoms: _472  and  _473
REMARK  176  A    between atoms: _478  and  _480
REMARK  177  A    between atoms: _480  and  _481
REMARK  178  A    between atoms: _483  and  _485
REMARK  179  A    between atoms: _485  and  _486
REMARK  180  A    between atoms: _485  and  _488
REMARK  181  A    between atoms: _488  and  _489
REMARK  182  A    between atoms: _495  and  _497
REMARK  183  A    between atoms: _497  and  _498
REMARK  184  A    between atoms: _497  and  _500
REMARK  185  A    between atoms: _500  and  _501
REMARK  186  A    between atoms: _506  and  _508
REMARK  187  A    between atoms: _508  and  _509
REMARK  188  A    between atoms: _508  and  _511
REMARK  189  A    between atoms: _511  and  _512
REMARK  190  A    between atoms: _512  and  _513
REMARK  191  A    between atoms: _513  and  _514
REMARK  192  A    between atoms: _514  and  ZN_788
REMARK  193  A    between atoms: _516  and  _518
REMARK  194  A    between atoms: _518  and  _519
REMARK  195  A    between atoms: _522  and  _524
REMARK  196  A    between atoms: _524  and  _525
REMARK  197  A    between atoms: _527  and  _529
REMARK  198  A    between atoms: _529  and  _530
REMARK  199  A    between atoms: _529  and  _532
REMARK  200  A    between atoms: _532  and  _533
REMARK  201  A    between atoms: _536  and  _538
REMARK  202  A    between atoms: _538  and  _539
REMARK  203  A    between atoms: _538  and  _541
REMARK  204  A    between atoms: _544  and  _546
REMARK  205  A    between atoms: _546  and  _547
REMARK  206  A    between atoms: _546  and  _549
REMARK  207  A    between atoms: _549  and  _550
REMARK  208  A    between atoms: _552  and  _554
REMARK  209  A    between atoms: _554  and  _555
REMARK  210  A    between atoms: _554  and  _557
REMARK  211  A    between atoms: _557  and  _558
REMARK  212  A    between atoms: _561  and  _563
REMARK  213  A    between atoms: _563  and  _564
REMARK  214  A    between atoms: _563  and  _566
REMARK  215  A    between atoms: _566  and  _567
REMARK  216  A    between atoms: _570  and  _572
REMARK  217  A    between atoms: _572  and  _573
REMARK  218  A    between atoms: _572  and  _575
REMARK  219  A    between atoms: _575  and  _576
REMARK  220  A    between atoms: _576  and  _577
REMARK  221  A    between atoms: _577  and  _578
REMARK  222  A    between atoms: _578  and  _579
REMARK  223  A    between atoms: _583  and  _585
REMARK  224  A    between atoms: _585  and  _586
REMARK  225  A    between atoms: _585  and  _588
REMARK  226  A    between atoms: _588  and  _589
REMARK  227  A    between atoms: _595  and  _597
REMARK  228  A    between atoms: _597  and  _598
REMARK  229  A    between atoms: _597  and  _600
REMARK  230  A    between atoms: _600  and  _601
REMARK  231  A    between atoms: _607  and  _609
REMARK  232  A    between atoms: _609  and  _610
REMARK  233  A    between atoms: _613  and  _615
REMARK  234  A    between atoms: _615  and  _616
REMARK  235  A    between atoms: _615  and  _618
REMARK  236  A    between atoms: _618  and  _619
REMARK  237  A    between atoms: _619  and  _620
REMARK  238  A    between atoms: _622  and  _624
REMARK  239  A    between atoms: _624  and  _625
REMARK  240  A    between atoms: _624  and  _627
REMARK  241  A    between atoms: _627  and  _628
REMARK  242  A    between atoms: _628  and  _629
REMARK  243  A    between atoms: _629  and  _630
REMARK  244  A    between atoms: _630  and  _631
REMARK  245  A    between atoms: _635  and  _637
REMARK  246  A    between atoms: _637  and  _638
REMARK  247  A    between atoms: _637  and  _640
REMARK  248  A    between atoms: _640  and  _641
REMARK  249  A    between atoms: _646  and  _647
REMARK  250  A    between atoms: _649  and  _651
REMARK  251  A    between atoms: _651  and  _652
REMARK  252  A    between atoms: _651  and  _654
REMARK  253  A    between atoms: _654  and  _655
REMARK  254  A    between atoms: _660  and  _662
REMARK  255  A    between atoms: _662  and  _663
REMARK  256  A    between atoms: _662  and  _665
REMARK  257  A    between atoms: _665  and  _666
REMARK  258  A    between atoms: _669  and  _671
REMARK  259  A    between atoms: _671  and  _672
REMARK  260  A    between atoms: _675  and  _677
REMARK  261  A    between atoms: _677  and  _678
REMARK  262  A    between atoms: _677  and  _680
REMARK  263  A    between atoms: _680  and  _681
REMARK  264  A    between atoms: _684  and  _686
REMARK  265  A    between atoms: _686  and  _687
REMARK  266  A    between atoms: _686  and  _689
REMARK  267  A    between atoms: _692  and  _694
REMARK  268  A    between atoms: _694  and  _695
REMARK  269  A    between atoms: _694  and  _697
REMARK  270  A    between atoms: _697  and  _698
REMARK  271  A    between atoms: _698  and  _699
REMARK  272  A    between atoms: _702  and  _704
REMARK  273  A    between atoms: _704  and  _705
REMARK  274  A    between atoms: _704  and  _707
REMARK  275  A    between atoms: _707  and  _708
REMARK  276  A    between atoms: _713  and  _714
REMARK  277  A    between atoms: _716  and  _718
REMARK  278  A    between atoms: _718  and  _719
REMARK  279  A    between atoms: _718  and  _721
REMARK  280  A    between atoms: _721  and  _722
REMARK  281  A    between atoms: _722  and  _723
REMARK  282  A    between atoms: _723  and  _724
REMARK  283  A    between atoms: _733  and  _735
REMARK  284  A    between atoms: _735  and  _736
REMARK  285  A    between atoms: _735  and  _738
REMARK  286  A    between atoms: _738  and  _739
REMARK  287  A    between atoms: _744  and  _745
REMARK  288  A    between atoms: _747  and  _749
REMARK  289  A    between atoms: _749  and  _750
REMARK  290  A    between atoms: _749  and  _752
REMARK  291  A    between atoms: _752  and  _753
REMARK  292  A    between atoms: _756  and  _758
REMARK  293  A    between atoms: _758  and  _759
REMARK  294  A    between atoms: _758  and  _761
REMARK  295  A    between atoms: _761  and  _762
REMARK  296  A    between atoms: _764  and  _766
REMARK  297  A    between atoms: _766  and  _767
REMARK  298  A    between atoms: _766  and  _769
REMARK  299  A    between atoms: _769  and  _770
REMARK  300  A    between atoms: _776  and  _778
REMARK  301  A    between atoms: _778  and  _779
REMARK  302  A    between atoms: _778  and  _781
REMARK  303  A    between atoms: _781  and  _782
REMARK  304  A    between atoms: _782  and  _783
REMARK                            x       y       z     vdW  Elec       q    Type
REMARK                         _______ _______ _______ _____ _____    ______ ____
ROOT
ATOM      1  C   ASP A   1      34.509  14.731 -45.878  0.00  0.00    +0.239 C 
ATOM      2  O   ASP A   1      34.899  13.583 -45.808  0.00  0.00    -0.274 OA
ATOM      3  N   LYS A   2      34.503  15.398 -47.023  0.00  0.00    -0.298 N 
ATOM      4  H   LYS A   2      34.374  16.430 -47.016  0.00  0.00    +0.150 HD
ENDROOT
BRANCH   1   5
ATOM      5  CA  ASP A   1      34.035  15.460 -44.615  0.00  0.00    +0.156 C 
BRANCH   5   6
ATOM      6  N   ASP A   1      34.584  16.797 -44.543  0.00  0.00    -0.238 NA
ATOM      7  H   ASP A   1      34.139  17.556 -45.098  0.00  0.00    +0.142 HD
ENDBRANCH   5   6
BRANCH   5   8
ATOM      8  CB  ASP A   1      32.499  15.510 -44.589  0.00  0.00    +0.140 C 
BRANCH   8   9
ATOM      9  CG  ASP A   1      31.925  15.788 -43.191  0.00  0.00    +0.367 C 
ATOM     10  OD2 ASP A   1      32.654  15.683 -42.167  0.00  0.00    -0.246 OA
ATOM     11  OD1 ASP A   1      30.725  16.128 -43.129  0.00  0.00    -0.246 OA
ENDBRANCH   8   9
ENDBRANCH   5   8
ENDBRANCH   1   5
BRANCH   3  12
ATOM     12  CA  LYS A   2      34.676  14.696 -48.303  0.00  0.00    +0.137 C 
BRANCH  12  13
ATOM     13  C   LYS A   2      36.122  14.468 -48.739  0.00  0.00    +0.227 C 
ATOM     14  O   LYS A   2      36.444  13.393 -49.244  0.00  0.00    -0.286 OA
ENDBRANCH  12  13
BRANCH  12  15
ATOM     15  CB  LYS A   2      33.881  15.398 -49.414  0.00  0.00    +0.028 C 
BRANCH  15  16
ATOM     16  CG  LYS A   2      32.373  15.439 -49.174  0.00  0.00    -0.000 C 
BRANCH  16  17
ATOM     17  CD  LYS A   2      31.790  14.055 -48.928  0.00  0.00    -0.024 C 
BRANCH  17  18
ATOM     18  CE  LYS A   2      30.277  14.064 -48.848  0.00  0.00    -0.086 C 
BRANCH  18  19
ATOM     19  NZ  LYS A   2      29.776  12.682 -48.674  0.00  0.00    +0.380 N 
ATOM     20  HZ1 LYS A   2      30.165  12.281 -47.797  0.00  0.00    -0.089 HD
ATOM     21  HZ2 LYS A   2      28.737  12.695 -48.620  0.00  0.00    -0.089 HD
ATOM     22  HZ3 LYS A   2      30.075  12.102 -49.484  0.00  0.00    -0.089 HD
ENDBRANCH  18  19
ENDBRANCH  17  18
ENDBRANCH  16  17
ENDBRANCH  15  16
ENDBRANCH  12  15
ENDBRANCH   3  12
TORSDOF 11
REMARK  Name = ../refined-set-2016/4ca8/4ca8_pocket.pdb
REMARK  304 active torsions:
REMARK  status: ('A' for Active; 'I' for Inactive)
REMARK    1  A    between atoms: _1  and  _3
REMARK    2  A    between atoms: _3  and  _4
REMARK    3  A    between atoms: _3  and  _6
REMARK    4  A    between atoms: _6  and  _7
REMARK    5  A    between atoms: _7  and  _8
REMARK    6  A    between atoms: _11  and  _13
REMARK    7  A    between atoms: _13  and  _14
REMARK    8  A    between atoms: _13  and  _16
REMARK    9  A    between atoms: _16  and  _17
REMARK   10  A    between atoms: _17  and  _18
REMARK   11  A    between atoms: _21  and  _23
REMARK   12  A    between atoms: _23  and  _24
REMARK   13  A    between atoms: _23  and  _26
REMARK   14  A    between atoms: _26  and  _27
REMARK   15  A    between atoms: _32  and  _34
REMARK   16  A    between atoms: _34  and  _35
REMARK   17  A    between atoms: _34  and  _37
REMARK   18  A    between atoms: _37  and  _38
REMARK   19  A    between atoms: _48  and  _50
REMARK   20  A    between atoms: _50  and  _51
REMARK   21  A    between atoms: _50  and  _53
REMARK   22  A    between atoms: _53  and  _54
REMARK   23  A    between atoms: _54  and  _55
REMARK   24  A    between atoms: _60  and  _62
REMARK   25  A    between atoms: _62  and  _63
REMARK   26  A    between atoms: _62  and  _65
REMARK   27  A    between atoms: _65  and  _66
REMARK   28  A    between atoms: _66  and  _67
REMARK   29  A    between atoms: _72  and  _74
REMARK   30  A    between atoms: _74  and  _75
REMARK   31  A    between atoms: _74  and  _77
REMARK   32  A    between atoms: _77  and  _78
REMARK   33  A    between atoms: _80  and  _82
REMARK   34  A    between atoms: _82  and  _83
REMARK   35  A    between atoms: _82  and  _85
REMARK   36  A    between atoms: _85  and  _86
REMARK   37  A    between atoms: _86  and  _87
REMARK   38  A    between atoms: _90  and  _92
REMARK   39  A    between atoms: _92  and  _93
REMARK   40  A    between atoms: _92  and  _95
REMARK   41  A    between atoms: _98  and  _100
REMARK   42  A    between atoms: _100  and  _101
REMARK   43  A    between atoms: _100  and  _103
REMARK   44  A    between atoms: _105  and  _107
REMARK   45  A    between atoms: _107  and  _108
REMARK   46  A    between atoms: _107  and  _110
REMARK   47  A    between atoms: _110  and  _111
REMARK   48  A    between atoms: _116  and  _118
REMARK   49  A    between atoms: _118  and  _119
REMARK   50  A    between atoms: _122  and  _124
REMARK   51  A    between atoms: _124  and  _125
REMARK   52  A    between atoms: _124  and  _127
REMARK   53  A    between atoms: _127  and  _128
REMARK   54  A    between atoms: _130  and  _132
REMARK   55  A    between atoms: _132  and  _133
REMARK   56  A    between atoms: _136  and  _138
REMARK   57  A    between atoms: _138  and  _139
REMARK   58  A    between atoms: _138  and  _141
REMARK   59  A    between atoms: _141  and  _142
REMARK   60  A    between atoms: _152  and  _154
REMARK   61  A    between atoms: _154  and  _155
REMARK   62  A    between atoms: _154  and  _157
REMARK   63  A    between atoms: _157  and  _158
REMARK   64  A    between atoms: _161  and  _163
REMARK   65  A    between atoms: _163  and  _164
REMARK   66  A    between atoms: _163  and  _166
REMARK   67  A    between atoms: _166  and  _167
REMARK   68  A    between atoms: _172  and  _173
REMARK   69  A    between atoms: _175  and  _177
REMARK   70  A    between atoms: _177  and  _178
REMARK   71  A    between atoms: _177  and  _180
REMARK   72  A    between atoms: _180  and  _181
REMARK   73  A    between atoms: _181  and  _182
REMARK   74  A    between atoms: _182  and  _183
REMARK   75  A    between atoms: _192  and  _194
REMARK   76  A    between atoms: _194  and  _195
REMARK   77  A    between atoms: _194  and  _197
REMARK   78  A    between atoms: _197  and  _198
REMARK   79  A    between atoms: _201  and  _203
REMARK   80  A    between atoms: _203  and  _204
REMARK   81  A    between atoms: _203  and  _206
REMARK   82  A    between atoms: _206  and  _207
REMARK   83  A    between atoms: _207  and  _208
REMARK   84  A    between atoms: _208  and  _209
REMARK   85  A    between atoms: _209  and  _210
REMARK   86  A    between atoms: _214  and  _216
REMARK   87  A    between atoms: _216  and  _217
REMARK   88  A    between atoms: _216  and  _219
REMARK   89  A    between atoms: _219  and  _220
REMARK   90  A    between atoms: _220  and  _221
REMARK   91  A    between atoms: _226  and  _228
REMARK   92  A    between atoms: _228  and  _229
REMARK   93  A    between atoms: _228  and  _231
REMARK   94  A    between atoms: _231  and  _232
REMARK   95  A    between atoms: _232  and  _233
REMARK   96  A    between atoms: _233  and  _234
REMARK   97  A    between atoms: _243  and  _245
REMARK   98  A    between atoms: _245  and  _246
REMARK   99  A    between atoms: _245  and  _248
REMARK  100  A    between atoms: _248  and  _249
REMARK  101  A    between atoms: _252  and  _254
REMARK  102  A    between atoms: _254  and  _255
REMARK  103  A    between atoms: _254  and  _257
REMARK  104  A    between atoms: _257  and  _258
REMARK  105  A    between atoms: _258  and  _259
REMARK  106  A    between atoms: _264  and  _266
REMARK  107  A    between atoms: _266  and  _267
REMARK  108  A    between atoms: _266  and  _269
REMARK  109  A    between atoms: _269  and  _270
REMARK  110  A    between atoms: _273  and  _275
REMARK  111  A    between atoms: _275  and  _276
REMARK  112  A    between atoms: _275  and  _278
REMARK  113  A    between atoms: _278  and  _279
REMARK  114  A    between atoms: _279  and  _280
REMARK  115  A    between atoms: _285  and  _287
REMARK  116  A    between atoms: _287  and  _288
REMARK  117  A    between atoms: _287  and  _290
REMARK  118  A    between atoms: _290  and  _291
REMARK  119  A    between atoms: _294  and  _296
REMARK  120  A    between atoms: _296  and  _297
REMARK  121  A    between atoms: _296  and  _299
REMARK  122  A    between atoms: _299  and  _300
REMARK  123  A    between atoms: _306  and  _308
REMARK  124  A    between atoms: _308  and  _309
REMARK  125  A    between atoms: _308  and  _311
REMARK  126  A    between atoms: _311  and  _312
REMARK  127  A    between atoms: _315  and  _317
REMARK  128  A    between atoms: _317  and  _318
REMARK  129  A    between atoms: _317  and  _320
REMARK  130  A    between atoms: _323  and  _325
REMARK  131  A    between atoms: _325  and  _326
REMARK  132  A    between atoms: _325  and  _328
REMARK  133  A    between atoms: _328  and  _329
REMARK  134  A    between atoms: _334  and  _336
REMARK  135  A    between atoms: _347  and  _350
REMARK  136  A    between atoms: _350  and  _351
REMARK  137  A    between atoms: _351  and  _352
REMARK  138  A    between atoms: _357  and  _360
REMARK  139  A    between atoms: _360  and  _361
REMARK  140  A    between atoms: _371  and  _372
REMARK  141  A    between atoms: _380  and  _382
REMARK  142  A    between atoms: _382  and  _383
REMARK  143  A    between atoms: _382  and  _385
REMARK  144  A    between atoms: _385  and  _386
REMARK  145  A    between atoms: _389  and  _391
REMARK  146  A    between atoms: _391  and  _392
REMARK  147  A    between atoms: _391  and  _394
REMARK  148  A    between atoms: _394  and  _395
REMARK  149  A    between atoms: _400  and  _401
REMARK  150  A    between atoms: _403  and  _405
REMARK  151  A    between atoms: _405  and  _406
REMARK  152  A    between atoms: _405  and  _408
REMARK  153  A    between atoms: _408  and  _409
REMARK  154  A    between atoms: _415  and  _417
REMARK  155  A    between atoms: _417  and  _418
REMARK  156  A    between atoms: _417  and  _420
REMARK  157  A    between atoms: _420  and  _421
REMARK  158  A    between atoms: _426  and  _427
REMARK  159  A    between atoms: _429  and  _431
REMARK  160  A    between atoms: _431  and  _432
REMARK  161  A    between atoms: _431  and  _434
REMARK  162  A    between atoms: _434  and  _435
REMARK  163  A    between atoms: _435  and  _436
REMARK  164  A    between atoms: _436  and  _437
REMARK  165  A    between atoms: _446  and  _448
REMARK  166  A    between atoms: _448  and  _449
REMARK  167  A    between atoms: _448  and  _451
REMARK  168  A    between atoms: _451  and  _452
REMARK  169  A    between atoms: _455  and  _457
REMARK  170  A    between atoms: _457  and  _458
REMARK  171  A    between atoms: _460  and  _462
REMARK  172  A    between atoms: _462  and  _463
REMARK  173  A    between atoms: _462  and  _465
REMARK  174  A    between atoms: _465  and  _466
REMARK  175  A    between atoms: _472  and  _473
REMARK  176  A    between atoms: _478  and  _480
REMARK  177  A    between atoms: _480  and  _481
REMARK  178  A    between atoms: _483  and  _485
REMARK  179  A    between atoms: _485  and  _486
REMARK  180  A    between atoms: _485  and  _488
REMARK  181  A    between atoms: _488  and  _489
REMARK  182  A    between atoms: _495  and  _497
REMARK  183  A    between atoms: _497  and  _498
REMARK  184  A    between atoms: _497  and  _500
REMARK  185  A    between atoms: _500  and  _501
REMARK  186  A    between atoms: _506  and  _508
REMARK  187  A    between atoms: _508  and  _509
REMARK  188  A    between atoms: _508  and  _511
REMARK  189  A    between atoms: _511  and  _512
REMARK  190  A    between atoms: _512  and  _513
REMARK  191  A    between atoms: _513  and  _514
REMARK  192  A    between atoms: _514  and  ZN_788
REMARK  193  A    between atoms: _516  and  _518
REMARK  194  A    between atoms: _518  and  _519
REMARK  195  A    between atoms: _522  and  _524
REMARK  196  A    between atoms: _524  and  _525
REMARK  197  A    between atoms: _527  and  _529
REMARK  198  A    between atoms: _529  and  _530
REMARK  199  A    between atoms: _529  and  _532
REMARK  200  A    between atoms: _532  and  _533
REMARK  201  A    between atoms: _536  and  _538
REMARK  202  A    between atoms: _538  and  _539
REMARK  203  A    between atoms: _538  and  _541
REMARK  204  A    between atoms: _544  and  _546
REMARK  205  A    between atoms: _546  and  _547
REMARK  206  A    between atoms: _546  and  _549
REMARK  207  A    between atoms: _549  and  _550
REMARK  208  A    between atoms: _552  and  _554
REMARK  209  A    between atoms: _554  and  _555
REMARK  210  A    between atoms: _554  and  _557
REMARK  211  A    between atoms: _557  and  _558
REMARK  212  A    between atoms: _561  and  _563
REMARK  213  A    between atoms: _563  and  _564
REMARK  214  A    between atoms: _563  and  _566
REMARK  215  A    between atoms: _566  and  _567
REMARK  216  A    between atoms: _570  and  _572
REMARK  217  A    between atoms: _572  and  _573
REMARK  218  A    between atoms: _572  and  _575
REMARK  219  A    between atoms: _575  and  _576
REMARK  220  A    between atoms: _576  and  _577
REMARK  221  A    between atoms: _577  and  _578
REMARK  222  A    between atoms: _578  and  _579
REMARK  223  A    between atoms: _583  and  _585
REMARK  224  A    between atoms: _585  and  _586
REMARK  225  A    between atoms: _585  and  _588
REMARK  226  A    between atoms: _588  and  _589
REMARK  227  A    between atoms: _595  and  _597
REMARK  228  A    between atoms: _597  and  _598
REMARK  229  A    between atoms: _597  and  _600
REMARK  230  A    between atoms: _600  and  _601
REMARK  231  A    between atoms: _607  and  _609
REMARK  232  A    between atoms: _609  and  _610
REMARK  233  A    between atoms: _613  and  _615
REMARK  234  A    between atoms: _615  and  _616
REMARK  235  A    between atoms: _615  and  _618
REMARK  236  A    between atoms: _618  and  _619
REMARK  237  A    between atoms: _619  and  _620
REMARK  238  A    between atoms: _622  and  _624
REMARK  239  A    between atoms: _624  and  _625
REMARK  240  A    between atoms: _624  and  _627
REMARK  241  A    between atoms: _627  and  _628
REMARK  242  A    between atoms: _628  and  _629
REMARK  243  A    between atoms: _629  and  _630
REMARK  244  A    between atoms: _630  and  _631
REMARK  245  A    between atoms: _635  and  _637
REMARK  246  A    between atoms: _637  and  _638
REMARK  247  A    between atoms: _637  and  _640
REMARK  248  A    between atoms: _640  and  _641
REMARK  249  A    between atoms: _646  and  _647
REMARK  250  A    between atoms: _649  and  _651
REMARK  251  A    between atoms: _651  and  _652
REMARK  252  A    between atoms: _651  and  _654
REMARK  253  A    between atoms: _654  and  _655
REMARK  254  A    between atoms: _660  and  _662
REMARK  255  A    between atoms: _662  and  _663
REMARK  256  A    between atoms: _662  and  _665
REMARK  257  A    between atoms: _665  and  _666
REMARK  258  A    between atoms: _669  and  _671
REMARK  259  A    between atoms: _671  and  _672
REMARK  260  A    between atoms: _675  and  _677
REMARK  261  A    between atoms: _677  and  _678
REMARK  262  A    between atoms: _677  and  _680
REMARK  263  A    between atoms: _680  and  _681
REMARK  264  A    between atoms: _684  and  _686
REMARK  265  A    between atoms: _686  and  _687
REMARK  266  A    between atoms: _686  and  _689
REMARK  267  A    between atoms: _692  and  _694
REMARK  268  A    between atoms: _694  and  _695
REMARK  269  A    between atoms: _694  and  _697
REMARK  270  A    between atoms: _697  and  _698
REMARK  271  A    between atoms: _698  and  _699
REMARK  272  A    between atoms: _702  and  _704
REMARK  273  A    between atoms: _704  and  _705
REMARK  274  A    between atoms: _704  and  _707
REMARK  275  A    between atoms: _707  and  _708
REMARK  276  A    between atoms: _713  and  _714
REMARK  277  A    between atoms: _716  and  _718
REMARK  278  A    between atoms: _718  and  _719
REMARK  279  A    between atoms: _718  and  _721
REMARK  280  A    between atoms: _721  and  _722
REMARK  281  A    between atoms: _722  and  _723
REMARK  282  A    between atoms: _723  and  _724
REMARK  283  A    between atoms: _733  and  _735
REMARK  284  A    between atoms: _735  and  _736
REMARK  285  A    between atoms: _735  and  _738
REMARK  286  A    between atoms: _738  and  _739
REMARK  287  A    between atoms: _744  and  _745
REMARK  288  A    between atoms: _747  and  _749
REMARK  289  A    between atoms: _749  and  _750
REMARK  290  A    between atoms: _749  and  _752
REMARK  291  A    between atoms: _752  and  _753
REMARK  292  A    between atoms: _756  and  _758
REMARK  293  A    between atoms: _758  and  _759
REMARK  294  A    between atoms: _758  and  _761
REMARK  295  A    between atoms: _761  and  _762
REMARK  296  A    between atoms: _764  and  _766
REMARK  297  A    between atoms: _766  and  _767
REMARK  298  A    between atoms: _766  and  _769
REMARK  299  A    between atoms: _769  and  _770
REMARK  300  A    between atoms: _776  and  _778
REMARK  301  A    between atoms: _778  and  _779
REMARK  302  A    between atoms: _778  and  _781
REMARK  303  A    between atoms: _781  and  _782
REMARK  304  A    between atoms: _782  and  _783
REMARK                            x       y       z     vdW  Elec       q    Type
REMARK                         _______ _______ _______ _____ _____    ______ ____
ROOT
ATOM      1  CB  PHE A   1      36.448  10.891 -45.737  0.00  0.00    +0.051 C 
ENDROOT
BRANCH   1   2
ATOM      2  CG  PHE A   1      35.936   9.482 -45.676  0.00  0.00    -0.020 A 
ATOM      3  CD2 PHE A   1      35.603   8.900 -44.474  0.00  0.00    -0.004 A 
ATOM      4  CE2 PHE A   1      35.087   7.621 -44.421  0.00  0.00    -0.000 A 
ATOM      5  CZ  PHE A   1      34.873   6.920 -45.587  0.00  0.00    -0.000 A 
ATOM      6  CE1 PHE A   1      35.190   7.492 -46.805  0.00  0.00    -0.000 A 
ATOM      7  CD1 PHE A   1      35.703   8.767 -46.846  0.00  0.00    -0.004 A 
ENDBRANCH   1   2
BRANCH   1   8
ATOM      8  CA  PHE A   1      37.948  11.052 -45.475  0.00  0.00    +0.137 C 
BRANCH   8   9
ATOM      9  N   PHE A   1      38.245  12.477 -45.519  0.00  0.00    -0.239 NA
ATOM     10  H   PHE A   1      37.473  13.137 -45.744  0.00  0.00    +0.142 HD
ENDBRANCH   8   9
BRANCH   8  11
ATOM     11  C   PHE A   1      38.748  10.190 -46.454  0.00  0.00    +0.224 C 
ATOM     12  O   PHE A   1      38.939   9.011 -46.216  0.00  0.00    -0.287 OA
ENDBRANCH   8  11
ENDBRANCH   1   8
TORSDOF 4
REMARK  Name = ../refined-set-2016/4ca8/4ca8_pocket.pdb
REMARK  304 active torsions:
REMARK  status: ('A' for Active; 'I' for Inactive)
REMARK    1  A    between atoms: _1  and  _3
REMARK    2  A    between atoms: _3  and  _4
REMARK    3  A    between atoms: _3  and  _6
REMARK    4  A    between atoms: _6  and  _7
REMARK    5  A    between atoms: _7  and  _8
REMARK    6  A    between atoms: _11  and  _13
REMARK    7  A    between atoms: _13  and  _14
REMARK    8  A    between atoms: _13  and  _16
REMARK    9  A    between atoms: _16  and  _17
REMARK   10  A    between atoms: _17  and  _18
REMARK   11  A    between atoms: _21  and  _23
REMARK   12  A    between atoms: _23  and  _24
REMARK   13  A    between atoms: _23  and  _26
REMARK   14  A    between atoms: _26  and  _27
REMARK   15  A    between atoms: _32  and  _34
REMARK   16  A    between atoms: _34  and  _35
REMARK   17  A    between atoms: _34  and  _37
REMARK   18  A    between atoms: _37  and  _38
REMARK   19  A    between atoms: _48  and  _50
REMARK   20  A    between atoms: _50  and  _51
REMARK   21  A    between atoms: _50  and  _53
REMARK   22  A    between atoms: _53  and  _54
REMARK   23  A    between atoms: _54  and  _55
REMARK   24  A    between atoms: _60  and  _62
REMARK   25  A    between atoms: _62  and  _63
REMARK   26  A    between atoms: _62  and  _65
REMARK   27  A    between atoms: _65  and  _66
REMARK   28  A    between atoms: _66  and  _67
REMARK   29  A    between atoms: _72  and  _74
REMARK   30  A    between atoms: _74  and  _75
REMARK   31  A    between atoms: _74  and  _77
REMARK   32  A    between atoms: _77  and  _78
REMARK   33  A    between atoms: _80  and  _82
REMARK   34  A    between atoms: _82  and  _83
REMARK   35  A    between atoms: _82  and  _85
REMARK   36  A    between atoms: _85  and  _86
REMARK   37  A    between atoms: _86  and  _87
REMARK   38  A    between atoms: _90  and  _92
REMARK   39  A    between atoms: _92  and  _93
REMARK   40  A    between atoms: _92  and  _95
REMARK   41  A    between atoms: _98  and  _100
REMARK   42  A    between atoms: _100  and  _101
REMARK   43  A    between atoms: _100  and  _103
REMARK   44  A    between atoms: _105  and  _107
REMARK   45  A    between atoms: _107  and  _108
REMARK   46  A    between atoms: _107  and  _110
REMARK   47  A    between atoms: _110  and  _111
REMARK   48  A    between atoms: _116  and  _118
REMARK   49  A    between atoms: _118  and  _119
REMARK   50  A    between atoms: _122  and  _124
REMARK   51  A    between atoms: _124  and  _125
REMARK   52  A    between atoms: _124  and  _127
REMARK   53  A    between atoms: _127  and  _128
REMARK   54  A    between atoms: _130  and  _132
REMARK   55  A    between atoms: _132  and  _133
REMARK   56  A    between atoms: _136  and  _138
REMARK   57  A    between atoms: _138  and  _139
REMARK   58  A    between atoms: _138  and  _141
REMARK   59  A    between atoms: _141  and  _142
REMARK   60  A    between atoms: _152  and  _154
REMARK   61  A    between atoms: _154  and  _155
REMARK   62  A    between atoms: _154  and  _157
REMARK   63  A    between atoms: _157  and  _158
REMARK   64  A    between atoms: _161  and  _163
REMARK   65  A    between atoms: _163  and  _164
REMARK   66  A    between atoms: _163  and  _166
REMARK   67  A    between atoms: _166  and  _167
REMARK   68  A    between atoms: _172  and  _173
REMARK   69  A    between atoms: _175  and  _177
REMARK   70  A    between atoms: _177  and  _178
REMARK   71  A    between atoms: _177  and  _180
REMARK   72  A    between atoms: _180  and  _181
REMARK   73  A    between atoms: _181  and  _182
REMARK   74  A    between atoms: _182  and  _183
REMARK   75  A    between atoms: _192  and  _194
REMARK   76  A    between atoms: _194  and  _195
REMARK   77  A    between atoms: _194  and  _197
REMARK   78  A    between atoms: _197  and  _198
REMARK   79  A    between atoms: _201  and  _203
REMARK   80  A    between atoms: _203  and  _204
REMARK   81  A    between atoms: _203  and  _206
REMARK   82  A    between atoms: _206  and  _207
REMARK   83  A    between atoms: _207  and  _208
REMARK   84  A    between atoms: _208  and  _209
REMARK   85  A    between atoms: _209  and  _210
REMARK   86  A    between atoms: _214  and  _216
REMARK   87  A    between atoms: _216  and  _217
REMARK   88  A    between atoms: _216  and  _219
REMARK   89  A    between atoms: _219  and  _220
REMARK   90  A    between atoms: _220  and  _221
REMARK   91  A    between atoms: _226  and  _228
REMARK   92  A    between atoms: _228  and  _229
REMARK   93  A    between atoms: _228  and  _231
REMARK   94  A    between atoms: _231  and  _232
REMARK   95  A    between atoms: _232  and  _233
REMARK   96  A    between atoms: _233  and  _234
REMARK   97  A    between atoms: _243  and  _245
REMARK   98  A    between atoms: _245  and  _246
REMARK   99  A    between atoms: _245  and  _248
REMARK  100  A    between atoms: _248  and  _249
REMARK  101  A    between atoms: _252  and  _254
REMARK  102  A    between atoms: _254  and  _255
REMARK  103  A    between atoms: _254  and  _257
REMARK  104  A    between atoms: _257  and  _258
REMARK  105  A    between atoms: _258  and  _259
REMARK  106  A    between atoms: _264  and  _266
REMARK  107  A    between atoms: _266  and  _267
REMARK  108  A    between atoms: _266  and  _269
REMARK  109  A    between atoms: _269  and  _270
REMARK  110  A    between atoms: _273  and  _275
REMARK  111  A    between atoms: _275  and  _276
REMARK  112  A    between atoms: _275  and  _278
REMARK  113  A    between atoms: _278  and  _279
REMARK  114  A    between atoms: _279  and  _280
REMARK  115  A    between atoms: _285  and  _287
REMARK  116  A    between atoms: _287  and  _288
REMARK  117  A    between atoms: _287  and  _290
REMARK  118  A    between atoms: _290  and  _291
REMARK  119  A    between atoms: _294  and  _296
REMARK  120  A    between atoms: _296  and  _297
REMARK  121  A    between atoms: _296  and  _299
REMARK  122  A    between atoms: _299  and  _300
REMARK  123  A    between atoms: _306  and  _308
REMARK  124  A    between atoms: _308  and  _309
REMARK  125  A    between atoms: _308  and  _311
REMARK  126  A    between atoms: _311  and  _312
REMARK  127  A    between atoms: _315  and  _317
REMARK  128  A    between atoms: _317  and  _318
REMARK  129  A    between atoms: _317  and  _320
REMARK  130  A    between atoms: _323  and  _325
REMARK  131  A    between atoms: _325  and  _326
REMARK  132  A    between atoms: _325  and  _328
REMARK  133  A    between atoms: _328  and  _329
REMARK  134  A    between atoms: _334  and  _336
REMARK  135  A    between atoms: _347  and  _350
REMARK  136  A    between atoms: _350  and  _351
REMARK  137  A    between atoms: _351  and  _352
REMARK  138  A    between atoms: _357  and  _360
REMARK  139  A    between atoms: _360  and  _361
REMARK  140  A    between atoms: _371  and  _372
REMARK  141  A    between atoms: _380  and  _382
REMARK  142  A    between atoms: _382  and  _383
REMARK  143  A    between atoms: _382  and  _385
REMARK  144  A    between atoms: _385  and  _386
REMARK  145  A    between atoms: _389  and  _391
REMARK  146  A    between atoms: _391  and  _392
REMARK  147  A    between atoms: _391  and  _394
REMARK  148  A    between atoms: _394  and  _395
REMARK  149  A    between atoms: _400  and  _401
REMARK  150  A    between atoms: _403  and  _405
REMARK  151  A    between atoms: _405  and  _406
REMARK  152  A    between atoms: _405  and  _408
REMARK  153  A    between atoms: _408  and  _409
REMARK  154  A    between atoms: _415  and  _417
REMARK  155  A    between atoms: _417  and  _418
REMARK  156  A    between atoms: _417  and  _420
REMARK  157  A    between atoms: _420  and  _421
REMARK  158  A    between atoms: _426  and  _427
REMARK  159  A    between atoms: _429  and  _431
REMARK  160  A    between atoms: _431  and  _432
REMARK  161  A    between atoms: _431  and  _434
REMARK  162  A    between atoms: _434  and  _435
REMARK  163  A    between atoms: _435  and  _436
REMARK  164  A    between atoms: _436  and  _437
REMARK  165  A    between atoms: _446  and  _448
REMARK  166  A    between atoms: _448  and  _449
REMARK  167  A    between atoms: _448  and  _451
REMARK  168  A    between atoms: _451  and  _452
REMARK  169  A    between atoms: _455  and  _457
REMARK  170  A    between atoms: _457  and  _458
REMARK  171  A    between atoms: _460  and  _462
REMARK  172  A    between atoms: _462  and  _463
REMARK  173  A    between atoms: _462  and  _465
REMARK  174  A    between atoms: _465  and  _466
REMARK  175  A    between atoms: _472  and  _473
REMARK  176  A    between atoms: _478  and  _480
REMARK  177  A    between atoms: _480  and  _481
REMARK  178  A    between atoms: _483  and  _485
REMARK  179  A    between atoms: _485  and  _486
REMARK  180  A    between atoms: _485  and  _488
REMARK  181  A    between atoms: _488  and  _489
REMARK  182  A    between atoms: _495  and  _497
REMARK  183  A    between atoms: _497  and  _498
REMARK  184  A    between atoms: _497  and  _500
REMARK  185  A    between atoms: _500  and  _501
REMARK  186  A    between atoms: _506  and  _508
REMARK  187  A    between atoms: _508  and  _509
REMARK  188  A    between atoms: _508  and  _511
REMARK  189  A    between atoms: _511  and  _512
REMARK  190  A    between atoms: _512  and  _513
REMARK  191  A    between atoms: _513  and  _514
REMARK  192  A    between atoms: _514  and  ZN_788
REMARK  193  A    between atoms: _516  and  _518
REMARK  194  A    between atoms: _518  and  _519
REMARK  195  A    between atoms: _522  and  _524
REMARK  196  A    between atoms: _524  and  _525
REMARK  197  A    between atoms: _527  and  _529
REMARK  198  A    between atoms: _529  and  _530
REMARK  199  A    between atoms: _529  and  _532
REMARK  200  A    between atoms: _532  and  _533
REMARK  201  A    between atoms: _536  and  _538
REMARK  202  A    between atoms: _538  and  _539
REMARK  203  A    between atoms: _538  and  _541
REMARK  204  A    between atoms: _544  and  _546
REMARK  205  A    between atoms: _546  and  _547
REMARK  206  A    between atoms: _546  and  _549
REMARK  207  A    between atoms: _549  and  _550
REMARK  208  A    between atoms: _552  and  _554
REMARK  209  A    between atoms: _554  and  _555
REMARK  210  A    between atoms: _554  and  _557
REMARK  211  A    between atoms: _557  and  _558
REMARK  212  A    between atoms: _561  and  _563
REMARK  213  A    between atoms: _563  and  _564
REMARK  214  A    between atoms: _563  and  _566
REMARK  215  A    between atoms: _566  and  _567
REMARK  216  A    between atoms: _570  and  _572
REMARK  217  A    between atoms: _572  and  _573
REMARK  218  A    between atoms: _572  and  _575
REMARK  219  A    between atoms: _575  and  _576
REMARK  220  A    between atoms: _576  and  _577
REMARK  221  A    between atoms: _577  and  _578
REMARK  222  A    between atoms: _578  and  _579
REMARK  223  A    between atoms: _583  and  _585
REMARK  224  A    between atoms: _585  and  _586
REMARK  225  A    between atoms: _585  and  _588
REMARK  226  A    between atoms: _588  and  _589
REMARK  227  A    between atoms: _595  and  _597
REMARK  228  A    between atoms: _597  and  _598
REMARK  229  A    between atoms: _597  and  _600
REMARK  230  A    between atoms: _600  and  _601
REMARK  231  A    between atoms: _607  and  _609
REMARK  232  A    between atoms: _609  and  _610
REMARK  233  A    between atoms: _613  and  _615
REMARK  234  A    between atoms: _615  and  _616
REMARK  235  A    between atoms: _615  and  _618
REMARK  236  A    between atoms: _618  and  _619
REMARK  237  A    between atoms: _619  and  _620
REMARK  238  A    between atoms: _622  and  _624
REMARK  239  A    between atoms: _624  and  _625
REMARK  240  A    between atoms: _624  and  _627
REMARK  241  A    between atoms: _627  and  _628
REMARK  242  A    between atoms: _628  and  _629
REMARK  243  A    between atoms: _629  and  _630
REMARK  244  A    between atoms: _630  and  _631
REMARK  245  A    between atoms: _635  and  _637
REMARK  246  A    between atoms: _637  and  _638
REMARK  247  A    between atoms: _637  and  _640
REMARK  248  A    between atoms: _640  and  _641
REMARK  249  A    between atoms: _646  and  _647
REMARK  250  A    between atoms: _649  and  _651
REMARK  251  A    between atoms: _651  and  _652
REMARK  252  A    between atoms: _651  and  _654
REMARK  253  A    between atoms: _654  and  _655
REMARK  254  A    between atoms: _660  and  _662
REMARK  255  A    between atoms: _662  and  _663
REMARK  256  A    between atoms: _662  and  _665
REMARK  257  A    between atoms: _665  and  _666
REMARK  258  A    between atoms: _669  and  _671
REMARK  259  A    between atoms: _671  and  _672
REMARK  260  A    between atoms: _675  and  _677
REMARK  261  A    between atoms: _677  and  _678
REMARK  262  A    between atoms: _677  and  _680
REMARK  263  A    between atoms: _680  and  _681
REMARK  264  A    between atoms: _684  and  _686
REMARK  265  A    between atoms: _686  and  _687
REMARK  266  A    between atoms: _686  and  _689
REMARK  267  A    between atoms: _692  and  _694
REMARK  268  A    between atoms: _694  and  _695
REMARK  269  A    between atoms: _694  and  _697
REMARK  270  A    between atoms: _697  and  _698
REMARK  271  A    between atoms: _698  and  _699
REMARK  272  A    between atoms: _702  and  _704
REMARK  273  A    between atoms: _704  and  _705
REMARK  274  A    between atoms: _704  and  _707
REMARK  275  A    between atoms: _707  and  _708
REMARK  276  A    between atoms: _713  and  _714
REMARK  277  A    between atoms: _716  and  _718
REMARK  278  A    between atoms: _718  and  _719
REMARK  279  A    between atoms: _718  and  _721
REMARK  280  A    between atoms: _721  and  _722
REMARK  281  A    between atoms: _722  and  _723
REMARK  282  A    between atoms: _723  and  _724
REMARK  283  A    between atoms: _733  and  _735
REMARK  284  A    between atoms: _735  and  _736
REMARK  285  A    between atoms: _735  and  _738
REMARK  286  A    between atoms: _738  and  _739
REMARK  287  A    between atoms: _744  and  _745
REMARK  288  A    between atoms: _747  and  _749
REMARK  289  A    between atoms: _749  and  _750
REMARK  290  A    between atoms: _749  and  _752
REMARK  291  A    between atoms: _752  and  _753
REMARK  292  A    between atoms: _756  and  _758
REMARK  293  A    between atoms: _758  and  _759
REMARK  294  A    between atoms: _758  and  _761
REMARK  295  A    between atoms: _761  and  _762
REMARK  296  A    between atoms: _764  and  _766
REMARK  297  A    between atoms: _766  and  _767
REMARK  298  A    between atoms: _766  and  _769
REMARK  299  A    between atoms: _769  and  _770
REMARK  300  A    between atoms: _776  and  _778
REMARK  301  A    between atoms: _778  and  _779
REMARK  302  A    between atoms: _778  and  _781
REMARK  303  A    between atoms: _781  and  _782
REMARK  304  A    between atoms: _782  and  _783
REMARK                            x       y       z     vdW  Elec       q    Type
REMARK                         _______ _______ _______ _____ _____    ______ ____
ROOT
ATOM      1  CA  PHE A   1      41.447   7.651 -43.998  0.00  0.00    +0.149 C 
ENDROOT
BRANCH   1   2
ATOM      2  C   PHE A   1      40.949   6.299 -44.527  0.00  0.00    +0.239 C 
ATOM      3  O   PHE A   1      41.394   5.220 -44.120  0.00  0.00    -0.274 OA
ATOM      4  N   ALA A   2      39.997   6.379 -45.436  0.00  0.00    -0.298 N 
ATOM      5  H   ALA A   2      39.686   7.317 -45.761  0.00  0.00    +0.150 HD
BRANCH   4   6
ATOM      6  CA  ALA A   2      39.368   5.190 -45.998  0.00  0.00    +0.137 C 
ATOM      7  CB  ALA A   2      38.232   5.575 -46.913  0.00  0.00    +0.030 C 
BRANCH   6   8
ATOM      8  C   ALA A   2      40.362   4.326 -46.736  0.00  0.00    +0.227 C 
ATOM      9  O   ALA A   2      40.245   3.109 -46.709  0.00  0.00    -0.286 OA
ENDBRANCH   6   8
ENDBRANCH   4   6
ENDBRANCH   1   2
BRANCH   1  10
ATOM     10  N   PHE A   1      41.838   8.511 -45.121  0.00  0.00    -0.238 NA
ATOM     11  H   PHE A   1      41.366   9.427 -45.265  0.00  0.00    +0.142 HD
ENDBRANCH   1  10
BRANCH   1  12
ATOM     12  CB  PHE A   1      40.337   8.293 -43.189  0.00  0.00    +0.053 C 
BRANCH  12  13
ATOM     13  CG  PHE A   1      39.694   7.345 -42.230  0.00  0.00    -0.020 A 
ATOM     14  CD2 PHE A   1      40.250   7.135 -40.978  0.00  0.00    -0.004 A 
ATOM     15  CE2 PHE A   1      39.668   6.250 -40.090  0.00  0.00    -0.000 A 
ATOM     16  CZ  PHE A   1      38.524   5.559 -40.444  0.00  0.00    -0.000 A 
ATOM     17  CE1 PHE A   1      37.962   5.758 -41.700  0.00  0.00    -0.000 A 
ATOM     18  CD1 PHE A   1      38.548   6.645 -42.580  0.00  0.00    -0.004 A 
ENDBRANCH  12  13
ENDBRANCH   1  12
TORSDOF 6
REMARK  Name = ../refined-set-2016/4ca8/4ca8_pocket.pdb
REMARK  304 active torsions:
REMARK  status: ('A' for Active; 'I' for Inactive)
REMARK    1  A    between atoms: _1  and  _3
REMARK    2  A    between atoms: _3  and  _4
REMARK    3  A    between atoms: _3  and  _6
REMARK    4  A    between atoms: _6  and  _7
REMARK    5  A    between atoms: _7  and  _8
REMARK    6  A    between atoms: _11  and  _13
REMARK    7  A    between atoms: _13  and  _14
REMARK    8  A    between atoms: _13  and  _16
REMARK    9  A    between atoms: _16  and  _17
REMARK   10  A    between atoms: _17  and  _18
REMARK   11  A    between atoms: _21  and  _23
REMARK   12  A    between atoms: _23  and  _24
REMARK   13  A    between atoms: _23  and  _26
REMARK   14  A    between atoms: _26  and  _27
REMARK   15  A    between atoms: _32  and  _34
REMARK   16  A    between atoms: _34  and  _35
REMARK   17  A    between atoms: _34  and  _37
REMARK   18  A    between atoms: _37  and  _38
REMARK   19  A    between atoms: _48  and  _50
REMARK   20  A    between atoms: _50  and  _51
REMARK   21  A    between atoms: _50  and  _53
REMARK   22  A    between atoms: _53  and  _54
REMARK   23  A    between atoms: _54  and  _55
REMARK   24  A    between atoms: _60  and  _62
REMARK   25  A    between atoms: _62  and  _63
REMARK   26  A    between atoms: _62  and  _65
REMARK   27  A    between atoms: _65  and  _66
REMARK   28  A    between atoms: _66  and  _67
REMARK   29  A    between atoms: _72  and  _74
REMARK   30  A    between atoms: _74  and  _75
REMARK   31  A    between atoms: _74  and  _77
REMARK   32  A    between atoms: _77  and  _78
REMARK   33  A    between atoms: _80  and  _82
REMARK   34  A    between atoms: _82  and  _83
REMARK   35  A    between atoms: _82  and  _85
REMARK   36  A    between atoms: _85  and  _86
REMARK   37  A    between atoms: _86  and  _87
REMARK   38  A    between atoms: _90  and  _92
REMARK   39  A    between atoms: _92  and  _93
REMARK   40  A    between atoms: _92  and  _95
REMARK   41  A    between atoms: _98  and  _100
REMARK   42  A    between atoms: _100  and  _101
REMARK   43  A    between atoms: _100  and  _103
REMARK   44  A    between atoms: _105  and  _107
REMARK   45  A    between atoms: _107  and  _108
REMARK   46  A    between atoms: _107  and  _110
REMARK   47  A    between atoms: _110  and  _111
REMARK   48  A    between atoms: _116  and  _118
REMARK   49  A    between atoms: _118  and  _119
REMARK   50  A    between atoms: _122  and  _124
REMARK   51  A    between atoms: _124  and  _125
REMARK   52  A    between atoms: _124  and  _127
REMARK   53  A    between atoms: _127  and  _128
REMARK   54  A    between atoms: _130  and  _132
REMARK   55  A    between atoms: _132  and  _133
REMARK   56  A    between atoms: _136  and  _138
REMARK   57  A    between atoms: _138  and  _139
REMARK   58  A    between atoms: _138  and  _141
REMARK   59  A    between atoms: _141  and  _142
REMARK   60  A    between atoms: _152  and  _154
REMARK   61  A    between atoms: _154  and  _155
REMARK   62  A    between atoms: _154  and  _157
REMARK   63  A    between atoms: _157  and  _158
REMARK   64  A    between atoms: _161  and  _163
REMARK   65  A    between atoms: _163  and  _164
REMARK   66  A    between atoms: _163  and  _166
REMARK   67  A    between atoms: _166  and  _167
REMARK   68  A    between atoms: _172  and  _173
REMARK   69  A    between atoms: _175  and  _177
REMARK   70  A    between atoms: _177  and  _178
REMARK   71  A    between atoms: _177  and  _180
REMARK   72  A    between atoms: _180  and  _181
REMARK   73  A    between atoms: _181  and  _182
REMARK   74  A    between atoms: _182  and  _183
REMARK   75  A    between atoms: _192  and  _194
REMARK   76  A    between atoms: _194  and  _195
REMARK   77  A    between atoms: _194  and  _197
REMARK   78  A    between atoms: _197  and  _198
REMARK   79  A    between atoms: _201  and  _203
REMARK   80  A    between atoms: _203  and  _204
REMARK   81  A    between atoms: _203  and  _206
REMARK   82  A    between atoms: _206  and  _207
REMARK   83  A    between atoms: _207  and  _208
REMARK   84  A    between atoms: _208  and  _209
REMARK   85  A    between atoms: _209  and  _210
REMARK   86  A    between atoms: _214  and  _216
REMARK   87  A    between atoms: _216  and  _217
REMARK   88  A    between atoms: _216  and  _219
REMARK   89  A    between atoms: _219  and  _220
REMARK   90  A    between atoms: _220  and  _221
REMARK   91  A    between atoms: _226  and  _228
REMARK   92  A    between atoms: _228  and  _229
REMARK   93  A    between atoms: _228  and  _231
REMARK   94  A    between atoms: _231  and  _232
REMARK   95  A    between atoms: _232  and  _233
REMARK   96  A    between atoms: _233  and  _234
REMARK   97  A    between atoms: _243  and  _245
REMARK   98  A    between atoms: _245  and  _246
REMARK   99  A    between atoms: _245  and  _248
REMARK  100  A    between atoms: _248  and  _249
REMARK  101  A    between atoms: _252  and  _254
REMARK  102  A    between atoms: _254  and  _255
REMARK  103  A    between atoms: _254  and  _257
REMARK  104  A    between atoms: _257  and  _258
REMARK  105  A    between atoms: _258  and  _259
REMARK  106  A    between atoms: _264  and  _266
REMARK  107  A    between atoms: _266  and  _267
REMARK  108  A    between atoms: _266  and  _269
REMARK  109  A    between atoms: _269  and  _270
REMARK  110  A    between atoms: _273  and  _275
REMARK  111  A    between atoms: _275  and  _276
REMARK  112  A    between atoms: _275  and  _278
REMARK  113  A    between atoms: _278  and  _279
REMARK  114  A    between atoms: _279  and  _280
REMARK  115  A    between atoms: _285  and  _287
REMARK  116  A    between atoms: _287  and  _288
REMARK  117  A    between atoms: _287  and  _290
REMARK  118  A    between atoms: _290  and  _291
REMARK  119  A    between atoms: _294  and  _296
REMARK  120  A    between atoms: _296  and  _297
REMARK  121  A    between atoms: _296  and  _299
REMARK  122  A    between atoms: _299  and  _300
REMARK  123  A    between atoms: _306  and  _308
REMARK  124  A    between atoms: _308  and  _309
REMARK  125  A    between atoms: _308  and  _311
REMARK  126  A    between atoms: _311  and  _312
REMARK  127  A    between atoms: _315  and  _317
REMARK  128  A    between atoms: _317  and  _318
REMARK  129  A    between atoms: _317  and  _320
REMARK  130  A    between atoms: _323  and  _325
REMARK  131  A    between atoms: _325  and  _326
REMARK  132  A    between atoms: _325  and  _328
REMARK  133  A    between atoms: _328  and  _329
REMARK  134  A    between atoms: _334  and  _336
REMARK  135  A    between atoms: _347  and  _350
REMARK  136  A    between atoms: _350  and  _351
REMARK  137  A    between atoms: _351  and  _352
REMARK  138  A    between atoms: _357  and  _360
REMARK  139  A    between atoms: _360  and  _361
REMARK  140  A    between atoms: _371  and  _372
REMARK  141  A    between atoms: _380  and  _382
REMARK  142  A    between atoms: _382  and  _383
REMARK  143  A    between atoms: _382  and  _385
REMARK  144  A    between atoms: _385  and  _386
REMARK  145  A    between atoms: _389  and  _391
REMARK  146  A    between atoms: _391  and  _392
REMARK  147  A    between atoms: _391  and  _394
REMARK  148  A    between atoms: _394  and  _395
REMARK  149  A    between atoms: _400  and  _401
REMARK  150  A    between atoms: _403  and  _405
REMARK  151  A    between atoms: _405  and  _406
REMARK  152  A    between atoms: _405  and  _408
REMARK  153  A    between atoms: _408  and  _409
REMARK  154  A    between atoms: _415  and  _417
REMARK  155  A    between atoms: _417  and  _418
REMARK  156  A    between atoms: _417  and  _420
REMARK  157  A    between atoms: _420  and  _421
REMARK  158  A    between atoms: _426  and  _427
REMARK  159  A    between atoms: _429  and  _431
REMARK  160  A    between atoms: _431  and  _432
REMARK  161  A    between atoms: _431  and  _434
REMARK  162  A    between atoms: _434  and  _435
REMARK  163  A    between atoms: _435  and  _436
REMARK  164  A    between atoms: _436  and  _437
REMARK  165  A    between atoms: _446  and  _448
REMARK  166  A    between atoms: _448  and  _449
REMARK  167  A    between atoms: _448  and  _451
REMARK  168  A    between atoms: _451  and  _452
REMARK  169  A    between atoms: _455  and  _457
REMARK  170  A    between atoms: _457  and  _458
REMARK  171  A    between atoms: _460  and  _462
REMARK  172  A    between atoms: _462  and  _463
REMARK  173  A    between atoms: _462  and  _465
REMARK  174  A    between atoms: _465  and  _466
REMARK  175  A    between atoms: _472  and  _473
REMARK  176  A    between atoms: _478  and  _480
REMARK  177  A    between atoms: _480  and  _481
REMARK  178  A    between atoms: _483  and  _485
REMARK  179  A    between atoms: _485  and  _486
REMARK  180  A    between atoms: _485  and  _488
REMARK  181  A    between atoms: _488  and  _489
REMARK  182  A    between atoms: _495  and  _497
REMARK  183  A    between atoms: _497  and  _498
REMARK  184  A    between atoms: _497  and  _500
REMARK  185  A    between atoms: _500  and  _501
REMARK  186  A    between atoms: _506  and  _508
REMARK  187  A    between atoms: _508  and  _509
REMARK  188  A    between atoms: _508  and  _511
REMARK  189  A    between atoms: _511  and  _512
REMARK  190  A    between atoms: _512  and  _513
REMARK  191  A    between atoms: _513  and  _514
REMARK  192  A    between atoms: _514  and  ZN_788
REMARK  193  A    between atoms: _516  and  _518
REMARK  194  A    between atoms: _518  and  _519
REMARK  195  A    between atoms: _522  and  _524
REMARK  196  A    between atoms: _524  and  _525
REMARK  197  A    between atoms: _527  and  _529
REMARK  198  A    between atoms: _529  and  _530
REMARK  199  A    between atoms: _529  and  _532
REMARK  200  A    between atoms: _532  and  _533
REMARK  201  A    between atoms: _536  and  _538
REMARK  202  A    between atoms: _538  and  _539
REMARK  203  A    between atoms: _538  and  _541
REMARK  204  A    between atoms: _544  and  _546
REMARK  205  A    between atoms: _546  and  _547
REMARK  206  A    between atoms: _546  and  _549
REMARK  207  A    between atoms: _549  and  _550
REMARK  208  A    between atoms: _552  and  _554
REMARK  209  A    between atoms: _554  and  _555
REMARK  210  A    between atoms: _554  and  _557
REMARK  211  A    between atoms: _557  and  _558
REMARK  212  A    between atoms: _561  and  _563
REMARK  213  A    between atoms: _563  and  _564
REMARK  214  A    between atoms: _563  and  _566
REMARK  215  A    between atoms: _566  and  _567
REMARK  216  A    between atoms: _570  and  _572
REMARK  217  A    between atoms: _572  and  _573
REMARK  218  A    between atoms: _572  and  _575
REMARK  219  A    between atoms: _575  and  _576
REMARK  220  A    between atoms: _576  and  _577
REMARK  221  A    between atoms: _577  and  _578
REMARK  222  A    between atoms: _578  and  _579
REMARK  223  A    between atoms: _583  and  _585
REMARK  224  A    between atoms: _585  and  _586
REMARK  225  A    between atoms: _585  and  _588
REMARK  226  A    between atoms: _588  and  _589
REMARK  227  A    between atoms: _595  and  _597
REMARK  228  A    between atoms: _597  and  _598
REMARK  229  A    between atoms: _597  and  _600
REMARK  230  A    between atoms: _600  and  _601
REMARK  231  A    between atoms: _607  and  _609
REMARK  232  A    between atoms: _609  and  _610
REMARK  233  A    between atoms: _613  and  _615
REMARK  234  A    between atoms: _615  and  _616
REMARK  235  A    between atoms: _615  and  _618
REMARK  236  A    between atoms: _618  and  _619
REMARK  237  A    between atoms: _619  and  _620
REMARK  238  A    between atoms: _622  and  _624
REMARK  239  A    between atoms: _624  and  _625
REMARK  240  A    between atoms: _624  and  _627
REMARK  241  A    between atoms: _627  and  _628
REMARK  242  A    between atoms: _628  and  _629
REMARK  243  A    between atoms: _629  and  _630
REMARK  244  A    between atoms: _630  and  _631
REMARK  245  A    between atoms: _635  and  _637
REMARK  246  A    between atoms: _637  and  _638
REMARK  247  A    between atoms: _637  and  _640
REMARK  248  A    between atoms: _640  and  _641
REMARK  249  A    between atoms: _646  and  _647
REMARK  250  A    between atoms: _649  and  _651
REMARK  251  A    between atoms: _651  and  _652
REMARK  252  A    between atoms: _651  and  _654
REMARK  253  A    between atoms: _654  and  _655
REMARK  254  A    between atoms: _660  and  _662
REMARK  255  A    between atoms: _662  and  _663
REMARK  256  A    between atoms: _662  and  _665
REMARK  257  A    between atoms: _665  and  _666
REMARK  258  A    between atoms: _669  and  _671
REMARK  259  A    between atoms: _671  and  _672
REMARK  260  A    between atoms: _675  and  _677
REMARK  261  A    between atoms: _677  and  _678
REMARK  262  A    between atoms: _677  and  _680
REMARK  263  A    between atoms: _680  and  _681
REMARK  264  A    between atoms: _684  and  _686
REMARK  265  A    between atoms: _686  and  _687
REMARK  266  A    between atoms: _686  and  _689
REMARK  267  A    between atoms: _692  and  _694
REMARK  268  A    between atoms: _694  and  _695
REMARK  269  A    between atoms: _694  and  _697
REMARK  270  A    between atoms: _697  and  _698
REMARK  271  A    between atoms: _698  and  _699
REMARK  272  A    between atoms: _702  and  _704
REMARK  273  A    between atoms: _704  and  _705
REMARK  274  A    between atoms: _704  and  _707
REMARK  275  A    between atoms: _707  and  _708
REMARK  276  A    between atoms: _713  and  _714
REMARK  277  A    between atoms: _716  and  _718
REMARK  278  A    between atoms: _718  and  _719
REMARK  279  A    between atoms: _718  and  _721
REMARK  280  A    between atoms: _721  and  _722
REMARK  281  A    between atoms: _722  and  _723
REMARK  282  A    between atoms: _723  and  _724
REMARK  283  A    between atoms: _733  and  _735
REMARK  284  A    between atoms: _735  and  _736
REMARK  285  A    between atoms: _735  and  _738
REMARK  286  A    between atoms: _738  and  _739
REMARK  287  A    between atoms: _744  and  _745
REMARK  288  A    between atoms: _747  and  _749
REMARK  289  A    between atoms: _749  and  _750
REMARK  290  A    between atoms: _749  and  _752
REMARK  291  A    between atoms: _752  and  _753
REMARK  292  A    between atoms: _756  and  _758
REMARK  293  A    between atoms: _758  and  _759
REMARK  294  A    between atoms: _758  and  _761
REMARK  295  A    between atoms: _761  and  _762
REMARK  296  A    between atoms: _764  and  _766
REMARK  297  A    between atoms: _766  and  _767
REMARK  298  A    between atoms: _766  and  _769
REMARK  299  A    between atoms: _769  and  _770
REMARK  300  A    between atoms: _776  and  _778
REMARK  301  A    between atoms: _778  and  _779
REMARK  302  A    between atoms: _778  and  _781
REMARK  303  A    between atoms: _781  and  _782
REMARK  304  A    between atoms: _782  and  _783
REMARK                            x       y       z     vdW  Elec       q    Type
REMARK                         _______ _______ _______ _____ _____    ______ ____
ROOT
ATOM      1  CA  MET A   1      41.630   1.079 -43.490  0.00  0.00    +0.134 C 
ENDROOT
BRANCH   1   2
ATOM      2  N   MET A   1      42.343   2.181 -44.164  0.00  0.00    -0.239 NA
ATOM      3  H   MET A   1      41.814   3.003 -44.517  0.00  0.00    +0.142 HD
ENDBRANCH   1   2
BRANCH   1   4
ATOM      4  C   MET A   1      41.882  -0.234 -44.219  0.00  0.00    +0.224 C 
ATOM      5  O   MET A   1      42.113  -1.264 -43.593  0.00  0.00    -0.287 OA
ENDBRANCH   1   4
BRANCH   1   6
ATOM      6  CB  MET A   1      40.122   1.315 -43.415  0.00  0.00    +0.037 C 
BRANCH   6   7
ATOM      7  CG  MET A   1      39.661   2.457 -42.534  0.00  0.00    +0.059 C 
BRANCH   7   8
ATOM      8  SD  MET A   1      40.268   2.326 -40.828  0.00  0.00    -0.139 S 
ATOM      9  CE  MET A   1      41.677   3.419 -40.946  0.00  0.00    +0.069 C 
ENDBRANCH   7   8
ENDBRANCH   6   7
ENDBRANCH   1   6
TORSDOF 5
REMARK  Name = ../refined-set-2016/4ca8/4ca8_pocket.pdb
REMARK  304 active torsions:
REMARK  status: ('A' for Active; 'I' for Inactive)
REMARK    1  A    between atoms: _1  and  _3
REMARK    2  A    between atoms: _3  and  _4
REMARK    3  A    between atoms: _3  and  _6
REMARK    4  A    between atoms: _6  and  _7
REMARK    5  A    between atoms: _7  and  _8
REMARK    6  A    between atoms: _11  and  _13
REMARK    7  A    between atoms: _13  and  _14
REMARK    8  A    between atoms: _13  and  _16
REMARK    9  A    between atoms: _16  and  _17
REMARK   10  A    between atoms: _17  and  _18
REMARK   11  A    between atoms: _21  and  _23
REMARK   12  A    between atoms: _23  and  _24
REMARK   13  A    between atoms: _23  and  _26
REMARK   14  A    between atoms: _26  and  _27
REMARK   15  A    between atoms: _32  and  _34
REMARK   16  A    between atoms: _34  and  _35
REMARK   17  A    between atoms: _34  and  _37
REMARK   18  A    between atoms: _37  and  _38
REMARK   19  A    between atoms: _48  and  _50
REMARK   20  A    between atoms: _50  and  _51
REMARK   21  A    between atoms: _50  and  _53
REMARK   22  A    between atoms: _53  and  _54
REMARK   23  A    between atoms: _54  and  _55
REMARK   24  A    between atoms: _60  and  _62
REMARK   25  A    between atoms: _62  and  _63
REMARK   26  A    between atoms: _62  and  _65
REMARK   27  A    between atoms: _65  and  _66
REMARK   28  A    between atoms: _66  and  _67
REMARK   29  A    between atoms: _72  and  _74
REMARK   30  A    between atoms: _74  and  _75
REMARK   31  A    between atoms: _74  and  _77
REMARK   32  A    between atoms: _77  and  _78
REMARK   33  A    between atoms: _80  and  _82
REMARK   34  A    between atoms: _82  and  _83
REMARK   35  A    between atoms: _82  and  _85
REMARK   36  A    between atoms: _85  and  _86
REMARK   37  A    between atoms: _86  and  _87
REMARK   38  A    between atoms: _90  and  _92
REMARK   39  A    between atoms: _92  and  _93
REMARK   40  A    between atoms: _92  and  _95
REMARK   41  A    between atoms: _98  and  _100
REMARK   42  A    between atoms: _100  and  _101
REMARK   43  A    between atoms: _100  and  _103
REMARK   44  A    between atoms: _105  and  _107
REMARK   45  A    between atoms: _107  and  _108
REMARK   46  A    between atoms: _107  and  _110
REMARK   47  A    between atoms: _110  and  _111
REMARK   48  A    between atoms: _116  and  _118
REMARK   49  A    between atoms: _118  and  _119
REMARK   50  A    between atoms: _122  and  _124
REMARK   51  A    between atoms: _124  and  _125
REMARK   52  A    between atoms: _124  and  _127
REMARK   53  A    between atoms: _127  and  _128
REMARK   54  A    between atoms: _130  and  _132
REMARK   55  A    between atoms: _132  and  _133
REMARK   56  A    between atoms: _136  and  _138
REMARK   57  A    between atoms: _138  and  _139
REMARK   58  A    between atoms: _138  and  _141
REMARK   59  A    between atoms: _141  and  _142
REMARK   60  A    between atoms: _152  and  _154
REMARK   61  A    between atoms: _154  and  _155
REMARK   62  A    between atoms: _154  and  _157
REMARK   63  A    between atoms: _157  and  _158
REMARK   64  A    between atoms: _161  and  _163
REMARK   65  A    between atoms: _163  and  _164
REMARK   66  A    between atoms: _163  and  _166
REMARK   67  A    between atoms: _166  and  _167
REMARK   68  A    between atoms: _172  and  _173
REMARK   69  A    between atoms: _175  and  _177
REMARK   70  A    between atoms: _177  and  _178
REMARK   71  A    between atoms: _177  and  _180
REMARK   72  A    between atoms: _180  and  _181
REMARK   73  A    between atoms: _181  and  _182
REMARK   74  A    between atoms: _182  and  _183
REMARK   75  A    between atoms: _192  and  _194
REMARK   76  A    between atoms: _194  and  _195
REMARK   77  A    between atoms: _194  and  _197
REMARK   78  A    between atoms: _197  and  _198
REMARK   79  A    between atoms: _201  and  _203
REMARK   80  A    between atoms: _203  and  _204
REMARK   81  A    between atoms: _203  and  _206
REMARK   82  A    between atoms: _206  and  _207
REMARK   83  A    between atoms: _207  and  _208
REMARK   84  A    between atoms: _208  and  _209
REMARK   85  A    between atoms: _209  and  _210
REMARK   86  A    between atoms: _214  and  _216
REMARK   87  A    between atoms: _216  and  _217
REMARK   88  A    between atoms: _216  and  _219
REMARK   89  A    between atoms: _219  and  _220
REMARK   90  A    between atoms: _220  and  _221
REMARK   91  A    between atoms: _226  and  _228
REMARK   92  A    between atoms: _228  and  _229
REMARK   93  A    between atoms: _228  and  _231
REMARK   94  A    between atoms: _231  and  _232
REMARK   95  A    between atoms: _232  and  _233
REMARK   96  A    between atoms: _233  and  _234
REMARK   97  A    between atoms: _243  and  _245
REMARK   98  A    between atoms: _245  and  _246
REMARK   99  A    between atoms: _245  and  _248
REMARK  100  A    between atoms: _248  and  _249
REMARK  101  A    between atoms: _252  and  _254
REMARK  102  A    between atoms: _254  and  _255
REMARK  103  A    between atoms: _254  and  _257
REMARK  104  A    between atoms: _257  and  _258
REMARK  105  A    between atoms: _258  and  _259
REMARK  106  A    between atoms: _264  and  _266
REMARK  107  A    between atoms: _266  and  _267
REMARK  108  A    between atoms: _266  and  _269
REMARK  109  A    between atoms: _269  and  _270
REMARK  110  A    between atoms: _273  and  _275
REMARK  111  A    between atoms: _275  and  _276
REMARK  112  A    between atoms: _275  and  _278
REMARK  113  A    between atoms: _278  and  _279
REMARK  114  A    between atoms: _279  and  _280
REMARK  115  A    between atoms: _285  and  _287
REMARK  116  A    between atoms: _287  and  _288
REMARK  117  A    between atoms: _287  and  _290
REMARK  118  A    between atoms: _290  and  _291
REMARK  119  A    between atoms: _294  and  _296
REMARK  120  A    between atoms: _296  and  _297
REMARK  121  A    between atoms: _296  and  _299
REMARK  122  A    between atoms: _299  and  _300
REMARK  123  A    between atoms: _306  and  _308
REMARK  124  A    between atoms: _308  and  _309
REMARK  125  A    between atoms: _308  and  _311
REMARK  126  A    between atoms: _311  and  _312
REMARK  127  A    between atoms: _315  and  _317
REMARK  128  A    between atoms: _317  and  _318
REMARK  129  A    between atoms: _317  and  _320
REMARK  130  A    between atoms: _323  and  _325
REMARK  131  A    between atoms: _325  and  _326
REMARK  132  A    between atoms: _325  and  _328
REMARK  133  A    between atoms: _328  and  _329
REMARK  134  A    between atoms: _334  and  _336
REMARK  135  A    between atoms: _347  and  _350
REMARK  136  A    between atoms: _350  and  _351
REMARK  137  A    between atoms: _351  and  _352
REMARK  138  A    between atoms: _357  and  _360
REMARK  139  A    between atoms: _360  and  _361
REMARK  140  A    between atoms: _371  and  _372
REMARK  141  A    between atoms: _380  and  _382
REMARK  142  A    between atoms: _382  and  _383
REMARK  143  A    between atoms: _382  and  _385
REMARK  144  A    between atoms: _385  and  _386
REMARK  145  A    between atoms: _389  and  _391
REMARK  146  A    between atoms: _391  and  _392
REMARK  147  A    between atoms: _391  and  _394
REMARK  148  A    between atoms: _394  and  _395
REMARK  149  A    between atoms: _400  and  _401
REMARK  150  A    between atoms: _403  and  _405
REMARK  151  A    between atoms: _405  and  _406
REMARK  152  A    between atoms: _405  and  _408
REMARK  153  A    between atoms: _408  and  _409
REMARK  154  A    between atoms: _415  and  _417
REMARK  155  A    between atoms: _417  and  _418
REMARK  156  A    between atoms: _417  and  _420
REMARK  157  A    between atoms: _420  and  _421
REMARK  158  A    between atoms: _426  and  _427
REMARK  159  A    between atoms: _429  and  _431
REMARK  160  A    between atoms: _431  and  _432
REMARK  161  A    between atoms: _431  and  _434
REMARK  162  A    between atoms: _434  and  _435
REMARK  163  A    between atoms: _435  and  _436
REMARK  164  A    between atoms: _436  and  _437
REMARK  165  A    between atoms: _446  and  _448
REMARK  166  A    between atoms: _448  and  _449
REMARK  167  A    between atoms: _448  and  _451
REMARK  168  A    between atoms: _451  and  _452
REMARK  169  A    between atoms: _455  and  _457
REMARK  170  A    between atoms: _457  and  _458
REMARK  171  A    between atoms: _460  and  _462
REMARK  172  A    between atoms: _462  and  _463
REMARK  173  A    between atoms: _462  and  _465
REMARK  174  A    between atoms: _465  and  _466
REMARK  175  A    between atoms: _472  and  _473
REMARK  176  A    between atoms: _478  and  _480
REMARK  177  A    between atoms: _480  and  _481
REMARK  178  A    between atoms: _483  and  _485
REMARK  179  A    between atoms: _485  and  _486
REMARK  180  A    between atoms: _485  and  _488
REMARK  181  A    between atoms: _488  and  _489
REMARK  182  A    between atoms: _495  and  _497
REMARK  183  A    between atoms: _497  and  _498
REMARK  184  A    between atoms: _497  and  _500
REMARK  185  A    between atoms: _500  and  _501
REMARK  186  A    between atoms: _506  and  _508
REMARK  187  A    between atoms: _508  and  _509
REMARK  188  A    between atoms: _508  and  _511
REMARK  189  A    between atoms: _511  and  _512
REMARK  190  A    between atoms: _512  and  _513
REMARK  191  A    between atoms: _513  and  _514
REMARK  192  A    between atoms: _514  and  ZN_788
REMARK  193  A    between atoms: _516  and  _518
REMARK  194  A    between atoms: _518  and  _519
REMARK  195  A    between atoms: _522  and  _524
REMARK  196  A    between atoms: _524  and  _525
REMARK  197  A    between atoms: _527  and  _529
REMARK  198  A    between atoms: _529  and  _530
REMARK  199  A    between atoms: _529  and  _532
REMARK  200  A    between atoms: _532  and  _533
REMARK  201  A    between atoms: _536  and  _538
REMARK  202  A    between atoms: _538  and  _539
REMARK  203  A    between atoms: _538  and  _541
REMARK  204  A    between atoms: _544  and  _546
REMARK  205  A    between atoms: _546  and  _547
REMARK  206  A    between atoms: _546  and  _549
REMARK  207  A    between atoms: _549  and  _550
REMARK  208  A    between atoms: _552  and  _554
REMARK  209  A    between atoms: _554  and  _555
REMARK  210  A    between atoms: _554  and  _557
REMARK  211  A    between atoms: _557  and  _558
REMARK  212  A    between atoms: _561  and  _563
REMARK  213  A    between atoms: _563  and  _564
REMARK  214  A    between atoms: _563  and  _566
REMARK  215  A    between atoms: _566  and  _567
REMARK  216  A    between atoms: _570  and  _572
REMARK  217  A    between atoms: _572  and  _573
REMARK  218  A    between atoms: _572  and  _575
REMARK  219  A    between atoms: _575  and  _576
REMARK  220  A    between atoms: _576  and  _577
REMARK  221  A    between atoms: _577  and  _578
REMARK  222  A    between atoms: _578  and  _579
REMARK  223  A    between atoms: _583  and  _585
REMARK  224  A    between atoms: _585  and  _586
REMARK  225  A    between atoms: _585  and  _588
REMARK  226  A    between atoms: _588  and  _589
REMARK  227  A    between atoms: _595  and  _597
REMARK  228  A    between atoms: _597  and  _598
REMARK  229  A    between atoms: _597  and  _600
REMARK  230  A    between atoms: _600  and  _601
REMARK  231  A    between atoms: _607  and  _609
REMARK  232  A    between atoms: _609  and  _610
REMARK  233  A    between atoms: _613  and  _615
REMARK  234  A    between atoms: _615  and  _616
REMARK  235  A    between atoms: _615  and  _618
REMARK  236  A    between atoms: _618  and  _619
REMARK  237  A    between atoms: _619  and  _620
REMARK  238  A    between atoms: _622  and  _624
REMARK  239  A    between atoms: _624  and  _625
REMARK  240  A    between atoms: _624  and  _627
REMARK  241  A    between atoms: _627  and  _628
REMARK  242  A    between atoms: _628  and  _629
REMARK  243  A    between atoms: _629  and  _630
REMARK  244  A    between atoms: _630  and  _631
REMARK  245  A    between atoms: _635  and  _637
REMARK  246  A    between atoms: _637  and  _638
REMARK  247  A    between atoms: _637  and  _640
REMARK  248  A    between atoms: _640  and  _641
REMARK  249  A    between atoms: _646  and  _647
REMARK  250  A    between atoms: _649  and  _651
REMARK  251  A    between atoms: _651  and  _652
REMARK  252  A    between atoms: _651  and  _654
REMARK  253  A    between atoms: _654  and  _655
REMARK  254  A    between atoms: _660  and  _662
REMARK  255  A    between atoms: _662  and  _663
REMARK  256  A    between atoms: _662  and  _665
REMARK  257  A    between atoms: _665  and  _666
REMARK  258  A    between atoms: _669  and  _671
REMARK  259  A    between atoms: _671  and  _672
REMARK  260  A    between atoms: _675  and  _677
REMARK  261  A    between atoms: _677  and  _678
REMARK  262  A    between atoms: _677  and  _680
REMARK  263  A    between atoms: _680  and  _681
REMARK  264  A    between atoms: _684  and  _686
REMARK  265  A    between atoms: _686  and  _687
REMARK  266  A    between atoms: _686  and  _689
REMARK  267  A    between atoms: _692  and  _694
REMARK  268  A    between atoms: _694  and  _695
REMARK  269  A    between atoms: _694  and  _697
REMARK  270  A    between atoms: _697  and  _698
REMARK  271  A    between atoms: _698  and  _699
REMARK  272  A    between atoms: _702  and  _704
REMARK  273  A    between atoms: _704  and  _705
REMARK  274  A    between atoms: _704  and  _707
REMARK  275  A    between atoms: _707  and  _708
REMARK  276  A    between atoms: _713  and  _714
REMARK  277  A    between atoms: _716  and  _718
REMARK  278  A    between atoms: _718  and  _719
REMARK  279  A    between atoms: _718  and  _721
REMARK  280  A    between atoms: _721  and  _722
REMARK  281  A    between atoms: _722  and  _723
REMARK  282  A    between atoms: _723  and  _724
REMARK  283  A    between atoms: _733  and  _735
REMARK  284  A    between atoms: _735  and  _736
REMARK  285  A    between atoms: _735  and  _738
REMARK  286  A    between atoms: _738  and  _739
REMARK  287  A    between atoms: _744  and  _745
REMARK  288  A    between atoms: _747  and  _749
REMARK  289  A    between atoms: _749  and  _750
REMARK  290  A    between atoms: _749  and  _752
REMARK  291  A    between atoms: _752  and  _753
REMARK  292  A    between atoms: _756  and  _758
REMARK  293  A    between atoms: _758  and  _759
REMARK  294  A    between atoms: _758  and  _761
REMARK  295  A    between atoms: _761  and  _762
REMARK  296  A    between atoms: _764  and  _766
REMARK  297  A    between atoms: _766  and  _767
REMARK  298  A    between atoms: _766  and  _769
REMARK  299  A    between atoms: _769  and  _770
REMARK  300  A    between atoms: _776  and  _778
REMARK  301  A    between atoms: _778  and  _779
REMARK  302  A    between atoms: _778  and  _781
REMARK  303  A    between atoms: _781  and  _782
REMARK  304  A    between atoms: _782  and  _783
REMARK                            x       y       z     vdW  Elec       q    Type
REMARK                         _______ _______ _______ _____ _____    ______ ____
ROOT
ATOM      1  CA  TYR A   2      33.540  -0.723 -36.272  0.00  0.00    +0.153 C 
ENDROOT
BRANCH   1   3
ATOM      2  C   LYS A   1      35.911  -0.080 -36.146  0.00  0.00    +0.238 C 
ATOM      3  N   TYR A   2      34.624   0.262 -36.135  0.00  0.00    -0.297 N 
ATOM      4  H   TYR A   2      34.375   1.266 -36.025  0.00  0.00    +0.150 HD
ATOM      5  O   LYS A   1      36.300  -1.222 -36.420  0.00  0.00    -0.274 OA
BRANCH   2   6
ATOM      6  CA  LYS A   1      36.916   1.037 -35.833  0.00  0.00    +0.145 C 
BRANCH   6   7
ATOM      7  N   LYS A   1      37.797   0.609 -34.754  0.00  0.00    -0.238 NA
ATOM      8  H   LYS A   1      38.653   0.068 -34.990  0.00  0.00    +0.142 HD
ENDBRANCH   6   7
BRANCH   6   9
ATOM      9  CB  LYS A   1      37.747   1.355 -37.086  0.00  0.00    +0.026 C 
BRANCH   9  10
ATOM     10  CG  LYS A   1      36.922   1.777 -38.295  0.00  0.00    -0.000 C 
BRANCH  10  11
ATOM     11  CD  LYS A   1      36.248   3.126 -38.099  0.00  0.00    -0.024 C 
BRANCH  11  12
ATOM     12  CE  LYS A   1      35.109   3.322 -39.091  0.00  0.00    -0.086 C 
BRANCH  12  13
ATOM     13  NZ  LYS A   1      34.006   4.145 -38.550  0.00  0.00    +0.380 N 
ATOM     14  HZ1 LYS A   1      33.613   3.684 -37.705  0.00  0.00    -0.089 HD
ATOM     15  HZ2 LYS A   1      34.369   5.086 -38.296  0.00  0.00    -0.089 HD
ATOM     16  HZ3 LYS A   1      33.262   4.242 -39.270  0.00  0.00    -0.089 HD
ENDBRANCH  12  13
ENDBRANCH  11  12
ENDBRANCH  10  11
ENDBRANCH   9  10
ENDBRANCH   6   9
ENDBRANCH   2   6
ENDBRANCH   1   3
BRANCH   1  17
ATOM     17  C   TYR A   2      33.825  -1.748 -37.366  0.00  0.00    +0.241 C 
ATOM     18  O   TYR A   2      33.827  -2.955 -37.123  0.00  0.00    -0.273 OA
ATOM     19  N   HIS A   3      34.115  -1.250 -38.562  0.00  0.00    -0.297 N 
ATOM     20  H   HIS A   3      34.259  -0.225 -38.660  0.00  0.00    +0.150 HD
BRANCH  19  21
ATOM     21  CA  HIS A   3      34.238  -2.098 -39.742  0.00  0.00    +0.155 C 
BRANCH  21  22
ATOM     22  C   HIS A   3      35.359  -3.093 -39.620  0.00  0.00    +0.241 C 
ATOM     23  N   ILE A   4      36.394  -2.724 -38.879  0.00  0.00    -0.298 N 
ATOM     24  H   ILE A   4      36.417  -1.767 -38.473  0.00  0.00    +0.150 HD
ATOM     25  O   HIS A   3      35.301  -4.171 -40.202  0.00  0.00    -0.273 OA
BRANCH  23  26
ATOM     26  CA  ILE A   4      37.499  -3.635 -38.624  0.00  0.00    +0.137 C 
BRANCH  26  27
ATOM     27  C   ILE A   4      37.126  -4.747 -37.633  0.00  0.00    +0.227 C 
ATOM     28  O   ILE A   4      37.509  -5.905 -37.816  0.00  0.00    -0.286 OA
ENDBRANCH  26  27
BRANCH  26  29
ATOM     29  CB  ILE A   4      38.753  -2.831 -38.223  0.00  0.00    +0.026 C 
ATOM     30  CG2 ILE A   4      39.882  -3.761 -37.820  0.00  0.00    +0.002 C 
BRANCH  29  31
ATOM     31  CG1 ILE A   4      39.124  -1.929 -39.434  0.00  0.00    +0.002 C 
ATOM     32  CD1 ILE A   4      40.527  -1.382 -39.460  0.00  0.00    +0.000 C 
ENDBRANCH  29  31
ENDBRANCH  26  29
ENDBRANCH  23  26
ENDBRANCH  21  22
BRANCH  21  33
ATOM     33  CB  HIS A   3      34.470  -1.240 -40.980  0.00  0.00    +0.076 C 
BRANCH  33  34
ATOM     34  CG  HIS A   3      33.336  -0.325 -41.276  0.00  0.00    +0.082 A 
ATOM     35  ND1 HIS A   3      33.035   0.763 -40.490  0.00  0.00    -0.227 NA
ATOM     36  CE1 HIS A   3      31.981   1.382 -40.987  0.00  0.00    +0.199 A 
ATOM     37  NE2 HIS A   3      31.595   0.739 -42.076  0.00  0.00    -0.221 NA
ATOM     38  CD2 HIS A   3      32.420  -0.338 -42.272  0.00  0.00    +0.115 A 
ENDBRANCH  33  34
ENDBRANCH  21  33
ENDBRANCH  19  21
ENDBRANCH   1  17
BRANCH   1  39
ATOM     39  CB  TYR A   2      32.174  -0.039 -36.526  0.00  0.00    +0.055 C 
BRANCH  39  40
ATOM     40  CG  TYR A   2      31.080  -1.029 -36.917  0.00  0.00    -0.020 A 
ATOM     41  CD2 TYR A   2      30.481  -1.834 -35.951  0.00  0.00    -0.001 A 
ATOM     42  CE2 TYR A   2      29.514  -2.762 -36.289  0.00  0.00    +0.036 A 
ATOM     43  CZ  TYR A   2      29.141  -2.917 -37.616  0.00  0.00    +0.134 A 
ATOM     44  CE1 TYR A   2      29.720  -2.138 -38.614  0.00  0.00    +0.036 A 
ATOM     45  CD1 TYR A   2      30.692  -1.203 -38.267  0.00  0.00    -0.001 A 
BRANCH  43  46
ATOM     46  OH  TYR A   2      28.175  -3.846 -37.892  0.00  0.00    -0.506 OA
ATOM     47  HH  TYR A   2      27.395  -3.397 -38.304  0.00  0.00    +0.292 HD
ENDBRANCH  43  46
ENDBRANCH  39  40
ENDBRANCH   1  39
TORSDOF 20
REMARK  Name = ../refined-set-2016/4ca8/4ca8_pocket.pdb
REMARK  304 active torsions:
REMARK  status: ('A' for Active; 'I' for Inactive)
REMARK    1  A    between atoms: _1  and  _3
REMARK    2  A    between atoms: _3  and  _4
REMARK    3  A    between atoms: _3  and  _6
REMARK    4  A    between atoms: _6  and  _7
REMARK    5  A    between atoms: _7  and  _8
REMARK    6  A    between atoms: _11  and  _13
REMARK    7  A    between atoms: _13  and  _14
REMARK    8  A    between atoms: _13  and  _16
REMARK    9  A    between atoms: _16  and  _17
REMARK   10  A    between atoms: _17  and  _18
REMARK   11  A    between atoms: _21  and  _23
REMARK   12  A    between atoms: _23  and  _24
REMARK   13  A    between atoms: _23  and  _26
REMARK   14  A    between atoms: _26  and  _27
REMARK   15  A    between atoms: _32  and  _34
REMARK   16  A    between atoms: _34  and  _35
REMARK   17  A    between atoms: _34  and  _37
REMARK   18  A    between atoms: _37  and  _38
REMARK   19  A    between atoms: _48  and  _50
REMARK   20  A    between atoms: _50  and  _51
REMARK   21  A    between atoms: _50  and  _53
REMARK   22  A    between atoms: _53  and  _54
REMARK   23  A    between atoms: _54  and  _55
REMARK   24  A    between atoms: _60  and  _62
REMARK   25  A    between atoms: _62  and  _63
REMARK   26  A    between atoms: _62  and  _65
REMARK   27  A    between atoms: _65  and  _66
REMARK   28  A    between atoms: _66  and  _67
REMARK   29  A    between atoms: _72  and  _74
REMARK   30  A    between atoms: _74  and  _75
REMARK   31  A    between atoms: _74  and  _77
REMARK   32  A    between atoms: _77  and  _78
REMARK   33  A    between atoms: _80  and  _82
REMARK   34  A    between atoms: _82  and  _83
REMARK   35  A    between atoms: _82  and  _85
REMARK   36  A    between atoms: _85  and  _86
REMARK   37  A    between atoms: _86  and  _87
REMARK   38  A    between atoms: _90  and  _92
REMARK   39  A    between atoms: _92  and  _93
REMARK   40  A    between atoms: _92  and  _95
REMARK   41  A    between atoms: _98  and  _100
REMARK   42  A    between atoms: _100  and  _101
REMARK   43  A    between atoms: _100  and  _103
REMARK   44  A    between atoms: _105  and  _107
REMARK   45  A    between atoms: _107  and  _108
REMARK   46  A    between atoms: _107  and  _110
REMARK   47  A    between atoms: _110  and  _111
REMARK   48  A    between atoms: _116  and  _118
REMARK   49  A    between atoms: _118  and  _119
REMARK   50  A    between atoms: _122  and  _124
REMARK   51  A    between atoms: _124  and  _125
REMARK   52  A    between atoms: _124  and  _127
REMARK   53  A    between atoms: _127  and  _128
REMARK   54  A    between atoms: _130  and  _132
REMARK   55  A    between atoms: _132  and  _133
REMARK   56  A    between atoms: _136  and  _138
REMARK   57  A    between atoms: _138  and  _139
REMARK   58  A    between atoms: _138  and  _141
REMARK   59  A    between atoms: _141  and  _142
REMARK   60  A    between atoms: _152  and  _154
REMARK   61  A    between atoms: _154  and  _155
REMARK   62  A    between atoms: _154  and  _157
REMARK   63  A    between atoms: _157  and  _158
REMARK   64  A    between atoms: _161  and  _163
REMARK   65  A    between atoms: _163  and  _164
REMARK   66  A    between atoms: _163  and  _166
REMARK   67  A    between atoms: _166  and  _167
REMARK   68  A    between atoms: _172  and  _173
REMARK   69  A    between atoms: _175  and  _177
REMARK   70  A    between atoms: _177  and  _178
REMARK   71  A    between atoms: _177  and  _180
REMARK   72  A    between atoms: _180  and  _181
REMARK   73  A    between atoms: _181  and  _182
REMARK   74  A    between atoms: _182  and  _183
REMARK   75  A    between atoms: _192  and  _194
REMARK   76  A    between atoms: _194  and  _195
REMARK   77  A    between atoms: _194  and  _197
REMARK   78  A    between atoms: _197  and  _198
REMARK   79  A    between atoms: _201  and  _203
REMARK   80  A    between atoms: _203  and  _204
REMARK   81  A    between atoms: _203  and  _206
REMARK   82  A    between atoms: _206  and  _207
REMARK   83  A    between atoms: _207  and  _208
REMARK   84  A    between atoms: _208  and  _209
REMARK   85  A    between atoms: _209  and  _210
REMARK   86  A    between atoms: _214  and  _216
REMARK   87  A    between atoms: _216  and  _217
REMARK   88  A    between atoms: _216  and  _219
REMARK   89  A    between atoms: _219  and  _220
REMARK   90  A    between atoms: _220  and  _221
REMARK   91  A    between atoms: _226  and  _228
REMARK   92  A    between atoms: _228  and  _229
REMARK   93  A    between atoms: _228  and  _231
REMARK   94  A    between atoms: _231  and  _232
REMARK   95  A    between atoms: _232  and  _233
REMARK   96  A    between atoms: _233  and  _234
REMARK   97  A    between atoms: _243  and  _245
REMARK   98  A    between atoms: _245  and  _246
REMARK   99  A    between atoms: _245  and  _248
REMARK  100  A    between atoms: _248  and  _249
REMARK  101  A    between atoms: _252  and  _254
REMARK  102  A    between atoms: _254  and  _255
REMARK  103  A    between atoms: _254  and  _257
REMARK  104  A    between atoms: _257  and  _258
REMARK  105  A    between atoms: _258  and  _259
REMARK  106  A    between atoms: _264  and  _266
REMARK  107  A    between atoms: _266  and  _267
REMARK  108  A    between atoms: _266  and  _269
REMARK  109  A    between atoms: _269  and  _270
REMARK  110  A    between atoms: _273  and  _275
REMARK  111  A    between atoms: _275  and  _276
REMARK  112  A    between atoms: _275  and  _278
REMARK  113  A    between atoms: _278  and  _279
REMARK  114  A    between atoms: _279  and  _280
REMARK  115  A    between atoms: _285  and  _287
REMARK  116  A    between atoms: _287  and  _288
REMARK  117  A    between atoms: _287  and  _290
REMARK  118  A    between atoms: _290  and  _291
REMARK  119  A    between atoms: _294  and  _296
REMARK  120  A    between atoms: _296  and  _297
REMARK  121  A    between atoms: _296  and  _299
REMARK  122  A    between atoms: _299  and  _300
REMARK  123  A    between atoms: _306  and  _308
REMARK  124  A    between atoms: _308  and  _309
REMARK  125  A    between atoms: _308  and  _311
REMARK  126  A    between atoms: _311  and  _312
REMARK  127  A    between atoms: _315  and  _317
REMARK  128  A    between atoms: _317  and  _318
REMARK  129  A    between atoms: _317  and  _320
REMARK  130  A    between atoms: _323  and  _325
REMARK  131  A    between atoms: _325  and  _326
REMARK  132  A    between atoms: _325  and  _328
REMARK  133  A    between atoms: _328  and  _329
REMARK  134  A    between atoms: _334  and  _336
REMARK  135  A    between atoms: _347  and  _350
REMARK  136  A    between atoms: _350  and  _351
REMARK  137  A    between atoms: _351  and  _352
REMARK  138  A    between atoms: _357  and  _360
REMARK  139  A    between atoms: _360  and  _361
REMARK  140  A    between atoms: _371  and  _372
REMARK  141  A    between atoms: _380  and  _382
REMARK  142  A    between atoms: _382  and  _383
REMARK  143  A    between atoms: _382  and  _385
REMARK  144  A    between atoms: _385  and  _386
REMARK  145  A    between atoms: _389  and  _391
REMARK  146  A    between atoms: _391  and  _392
REMARK  147  A    between atoms: _391  and  _394
REMARK  148  A    between atoms: _394  and  _395
REMARK  149  A    between atoms: _400  and  _401
REMARK  150  A    between atoms: _403  and  _405
REMARK  151  A    between atoms: _405  and  _406
REMARK  152  A    between atoms: _405  and  _408
REMARK  153  A    between atoms: _408  and  _409
REMARK  154  A    between atoms: _415  and  _417
REMARK  155  A    between atoms: _417  and  _418
REMARK  156  A    between atoms: _417  and  _420
REMARK  157  A    between atoms: _420  and  _421
REMARK  158  A    between atoms: _426  and  _427
REMARK  159  A    between atoms: _429  and  _431
REMARK  160  A    between atoms: _431  and  _432
REMARK  161  A    between atoms: _431  and  _434
REMARK  162  A    between atoms: _434  and  _435
REMARK  163  A    between atoms: _435  and  _436
REMARK  164  A    between atoms: _436  and  _437
REMARK  165  A    between atoms: _446  and  _448
REMARK  166  A    between atoms: _448  and  _449
REMARK  167  A    between atoms: _448  and  _451
REMARK  168  A    between atoms: _451  and  _452
REMARK  169  A    between atoms: _455  and  _457
REMARK  170  A    between atoms: _457  and  _458
REMARK  171  A    between atoms: _460  and  _462
REMARK  172  A    between atoms: _462  and  _463
REMARK  173  A    between atoms: _462  and  _465
REMARK  174  A    between atoms: _465  and  _466
REMARK  175  A    between atoms: _472  and  _473
REMARK  176  A    between atoms: _478  and  _480
REMARK  177  A    between atoms: _480  and  _481
REMARK  178  A    between atoms: _483  and  _485
REMARK  179  A    between atoms: _485  and  _486
REMARK  180  A    between atoms: _485  and  _488
REMARK  181  A    between atoms: _488  and  _489
REMARK  182  A    between atoms: _495  and  _497
REMARK  183  A    between atoms: _497  and  _498
REMARK  184  A    between atoms: _497  and  _500
REMARK  185  A    between atoms: _500  and  _501
REMARK  186  A    between atoms: _506  and  _508
REMARK  187  A    between atoms: _508  and  _509
REMARK  188  A    between atoms: _508  and  _511
REMARK  189  A    between atoms: _511  and  _512
REMARK  190  A    between atoms: _512  and  _513
REMARK  191  A    between atoms: _513  and  _514
REMARK  192  A    between atoms: _514  and  ZN_788
REMARK  193  A    between atoms: _516  and  _518
REMARK  194  A    between atoms: _518  and  _519
REMARK  195  A    between atoms: _522  and  _524
REMARK  196  A    between atoms: _524  and  _525
REMARK  197  A    between atoms: _527  and  _529
REMARK  198  A    between atoms: _529  and  _530
REMARK  199  A    between atoms: _529  and  _532
REMARK  200  A    between atoms: _532  and  _533
REMARK  201  A    between atoms: _536  and  _538
REMARK  202  A    between atoms: _538  and  _539
REMARK  203  A    between atoms: _538  and  _541
REMARK  204  A    between atoms: _544  and  _546
REMARK  205  A    between atoms: _546  and  _547
REMARK  206  A    between atoms: _546  and  _549
REMARK  207  A    between atoms: _549  and  _550
REMARK  208  A    between atoms: _552  and  _554
REMARK  209  A    between atoms: _554  and  _555
REMARK  210  A    between atoms: _554  and  _557
REMARK  211  A    between atoms: _557  and  _558
REMARK  212  A    between atoms: _561  and  _563
REMARK  213  A    between atoms: _563  and  _564
REMARK  214  A    between atoms: _563  and  _566
REMARK  215  A    between atoms: _566  and  _567
REMARK  216  A    between atoms: _570  and  _572
REMARK  217  A    between atoms: _572  and  _573
REMARK  218  A    between atoms: _572  and  _575
REMARK  219  A    between atoms: _575  and  _576
REMARK  220  A    between atoms: _576  and  _577
REMARK  221  A    between atoms: _577  and  _578
REMARK  222  A    between atoms: _578  and  _579
REMARK  223  A    between atoms: _583  and  _585
REMARK  224  A    between atoms: _585  and  _586
REMARK  225  A    between atoms: _585  and  _588
REMARK  226  A    between atoms: _588  and  _589
REMARK  227  A    between atoms: _595  and  _597
REMARK  228  A    between atoms: _597  and  _598
REMARK  229  A    between atoms: _597  and  _600
REMARK  230  A    between atoms: _600  and  _601
REMARK  231  A    between atoms: _607  and  _609
REMARK  232  A    between atoms: _609  and  _610
REMARK  233  A    between atoms: _613  and  _615
REMARK  234  A    between atoms: _615  and  _616
REMARK  235  A    between atoms: _615  and  _618
REMARK  236  A    between atoms: _618  and  _619
REMARK  237  A    between atoms: _619  and  _620
REMARK  238  A    between atoms: _622  and  _624
REMARK  239  A    between atoms: _624  and  _625
REMARK  240  A    between atoms: _624  and  _627
REMARK  241  A    between atoms: _627  and  _628
REMARK  242  A    between atoms: _628  and  _629
REMARK  243  A    between atoms: _629  and  _630
REMARK  244  A    between atoms: _630  and  _631
REMARK  245  A    between atoms: _635  and  _637
REMARK  246  A    between atoms: _637  and  _638
REMARK  247  A    between atoms: _637  and  _640
REMARK  248  A    between atoms: _640  and  _641
REMARK  249  A    between atoms: _646  and  _647
REMARK  250  A    between atoms: _649  and  _651
REMARK  251  A    between atoms: _651  and  _652
REMARK  252  A    between atoms: _651  and  _654
REMARK  253  A    between atoms: _654  and  _655
REMARK  254  A    between atoms: _660  and  _662
REMARK  255  A    between atoms: _662  and  _663
REMARK  256  A    between atoms: _662  and  _665
REMARK  257  A    between atoms: _665  and  _666
REMARK  258  A    between atoms: _669  and  _671
REMARK  259  A    between atoms: _671  and  _672
REMARK  260  A    between atoms: _675  and  _677
REMARK  261  A    between atoms: _677  and  _678
REMARK  262  A    between atoms: _677  and  _680
REMARK  263  A    between atoms: _680  and  _681
REMARK  264  A    between atoms: _684  and  _686
REMARK  265  A    between atoms: _686  and  _687
REMARK  266  A    between atoms: _686  and  _689
REMARK  267  A    between atoms: _692  and  _694
REMARK  268  A    between atoms: _694  and  _695
REMARK  269  A    between atoms: _694  and  _697
REMARK  270  A    between atoms: _697  and  _698
REMARK  271  A    between atoms: _698  and  _699
REMARK  272  A    between atoms: _702  and  _704
REMARK  273  A    between atoms: _704  and  _705
REMARK  274  A    between atoms: _704  and  _707
REMARK  275  A    between atoms: _707  and  _708
REMARK  276  A    between atoms: _713  and  _714
REMARK  277  A    between atoms: _716  and  _718
REMARK  278  A    between atoms: _718  and  _719
REMARK  279  A    between atoms: _718  and  _721
REMARK  280  A    between atoms: _721  and  _722
REMARK  281  A    between atoms: _722  and  _723
REMARK  282  A    between atoms: _723  and  _724
REMARK  283  A    between atoms: _733  and  _735
REMARK  284  A    between atoms: _735  and  _736
REMARK  285  A    between atoms: _735  and  _738
REMARK  286  A    between atoms: _738  and  _739
REMARK  287  A    between atoms: _744  and  _745
REMARK  288  A    between atoms: _747  and  _749
REMARK  289  A    between atoms: _749  and  _750
REMARK  290  A    between atoms: _749  and  _752
REMARK  291  A    between atoms: _752  and  _753
REMARK  292  A    between atoms: _756  and  _758
REMARK  293  A    between atoms: _758  and  _759
REMARK  294  A    between atoms: _758  and  _761
REMARK  295  A    between atoms: _761  and  _762
REMARK  296  A    between atoms: _764  and  _766
REMARK  297  A    between atoms: _766  and  _767
REMARK  298  A    between atoms: _766  and  _769
REMARK  299  A    between atoms: _769  and  _770
REMARK  300  A    between atoms: _776  and  _778
REMARK  301  A    between atoms: _778  and  _779
REMARK  302  A    between atoms: _778  and  _781
REMARK  303  A    between atoms: _781  and  _782
REMARK  304  A    between atoms: _782  and  _783
REMARK                            x       y       z     vdW  Elec       q    Type
REMARK                         _______ _______ _______ _____ _____    ______ ____
ROOT
ATOM      1  C   VAL A   3      34.507  -4.390 -44.254  0.00  0.00    +0.241 C 
ATOM      2  O   VAL A   3      35.210  -3.517 -43.769  0.00  0.00    -0.273 OA
ATOM      3  N   GLU A   4      34.627  -4.797 -45.513  0.00  0.00    -0.297 N 
ATOM      4  H   GLU A   4      34.022  -5.577 -45.842  0.00  0.00    +0.150 HD
ENDROOT
BRANCH   3   5
ATOM      5  CA  GLU A   4      35.563  -4.204 -46.451  0.00  0.00    +0.149 C 
BRANCH   5   6
ATOM      6  C   GLU A   4      35.307  -2.696 -46.531  0.00  0.00    +0.241 C 
ATOM      7  N   TYR A   5      36.373  -1.898 -46.524  0.00  0.00    -0.298 N 
ATOM      8  H   TYR A   5      37.322  -2.313 -46.617  0.00  0.00    +0.150 HD
ATOM      9  O   GLU A   4      34.169  -2.266 -46.549  0.00  0.00    -0.273 OA
BRANCH   7  10
ATOM     10  CA  TYR A   5      36.234  -0.442 -46.388  0.00  0.00    +0.141 C 
BRANCH  10  11
ATOM     11  C   TYR A   5      36.522   0.349 -47.649  0.00  0.00    +0.227 C 
ATOM     12  O   TYR A   5      36.152   1.508 -47.726  0.00  0.00    -0.286 OA
ENDBRANCH  10  11
BRANCH  10  13
ATOM     13  CB  TYR A   5      37.122   0.096 -45.263  0.00  0.00    +0.054 C 
BRANCH  13  14
ATOM     14  CG  TYR A   5      36.529   1.301 -44.600  0.00  0.00    -0.020 A 
ATOM     15  CD2 TYR A   5      35.638   1.156 -43.535  0.00  0.00    -0.001 A 
ATOM     16  CE2 TYR A   5      35.080   2.256 -42.911  0.00  0.00    +0.036 A 
ATOM     17  CZ  TYR A   5      35.418   3.516 -43.329  0.00  0.00    +0.134 A 
ATOM     18  CE1 TYR A   5      36.288   3.690 -44.404  0.00  0.00    +0.036 A 
ATOM     19  CD1 TYR A   5      36.845   2.581 -45.021  0.00  0.00    -0.001 A 
BRANCH  17  20
ATOM     20  OH  TYR A   5      34.831   4.599 -42.724  0.00  0.00    -0.506 OA
ATOM     21  HH  TYR A   5      34.249   4.288 -41.986  0.00  0.00    +0.292 HD
ENDBRANCH  17  20
ENDBRANCH  13  14
ENDBRANCH  10  13
ENDBRANCH   7  10
ENDBRANCH   5   6
BRANCH   5  22
ATOM     22  CB  GLU A   4      35.415  -4.911 -47.810  0.00  0.00    +0.041 C 
BRANCH  22  23
ATOM     23  CG  GLU A   4      36.371  -4.457 -48.893  0.00  0.00    +0.116 C 
BRANCH  23  24
ATOM     24  CD  GLU A   4      35.803  -3.384 -49.787  0.00  0.00    +0.365 C 
ATOM     25  OE2 GLU A   4      34.895  -2.652 -49.320  0.00  0.00    -0.246 OA
ATOM     26  OE1 GLU A   4      36.267  -3.290 -50.974  0.00  0.00    -0.246 OA
ENDBRANCH  23  24
ENDBRANCH  22  23
ENDBRANCH   5  22
ENDBRANCH   3   5
BRANCH   1  27
ATOM     27  CA  VAL A   3      33.455  -5.109 -43.419  0.00  0.00    +0.149 C 
BRANCH  27  29
ATOM     28  C   ASP A   2      34.092  -7.045 -42.083  0.00  0.00    +0.241 C 
ATOM     29  N   VAL A   3      34.131  -5.736 -42.290  0.00  0.00    -0.297 N 
ATOM     30  H   VAL A   3      34.661  -5.137 -41.625  0.00  0.00    +0.150 HD
ATOM     31  O   ASP A   2      33.407  -7.807 -42.771  0.00  0.00    -0.273 OA
BRANCH  28  32
ATOM     32  CA  ASP A   2      34.920  -7.554 -40.892  0.00  0.00    +0.160 C 
BRANCH  32  34
ATOM     33  C   ALA A   1      33.205  -7.009 -39.232  0.00  0.00    +0.238 C 
ATOM     34  N   ASP A   2      34.467  -6.947 -39.621  0.00  0.00    -0.297 N 
ATOM     35  H   ASP A   2      35.159  -6.459 -39.018  0.00  0.00    +0.150 HD
ATOM     36  O   ALA A   1      32.319  -7.508 -39.927  0.00  0.00    -0.274 OA
BRANCH  33  37
ATOM     37  CA  ALA A   1      32.866  -6.417 -37.851  0.00  0.00    +0.145 C 
ATOM     38  CB  ALA A   1      31.702  -5.462 -38.003  0.00  0.00    +0.028 C 
BRANCH  37  39
ATOM     39  N   ALA A   1      33.980  -5.723 -37.195  0.00  0.00    -0.238 NA
ATOM     40  H   ALA A   1      34.129  -4.716 -37.407  0.00  0.00    +0.142 HD
ENDBRANCH  37  39
ENDBRANCH  33  37
ENDBRANCH  32  34
BRANCH  32  41
ATOM     41  CB  ASP A   2      34.891  -9.098 -40.774  0.00  0.00    +0.143 C 
BRANCH  41  42
ATOM     42  CG  ASP A   2      35.373  -9.813 -42.049  0.00  0.00    +0.367 C 
ATOM     43  OD2 ASP A   2      34.858 -10.917 -42.333  0.00  0.00    -0.246 OA
ATOM     44  OD1 ASP A   2      36.283  -9.289 -42.727  0.00  0.00    -0.246 OA
ENDBRANCH  41  42
ENDBRANCH  32  41
ENDBRANCH  28  32
ENDBRANCH  27  29
BRANCH  27  45
ATOM     45  CB  VAL A   3      32.374  -4.109 -42.955  0.00  0.00    +0.027 C 
ATOM     46  CG2 VAL A   3      31.323  -4.795 -42.100  0.00  0.00    +0.002 C 
ATOM     47  CG1 VAL A   3      31.717  -3.437 -44.148  0.00  0.00    +0.002 C 
ENDBRANCH  27  45
ENDBRANCH   1  27
TORSDOF 19
REMARK  Name = ../refined-set-2016/4ca8/4ca8_pocket.pdb
REMARK  304 active torsions:
REMARK  status: ('A' for Active; 'I' for Inactive)
REMARK    1  A    between atoms: _1  and  _3
REMARK    2  A    between atoms: _3  and  _4
REMARK    3  A    between atoms: _3  and  _6
REMARK    4  A    between atoms: _6  and  _7
REMARK    5  A    between atoms: _7  and  _8
REMARK    6  A    between atoms: _11  and  _13
REMARK    7  A    between atoms: _13  and  _14
REMARK    8  A    between atoms: _13  and  _16
REMARK    9  A    between atoms: _16  and  _17
REMARK   10  A    between atoms: _17  and  _18
REMARK   11  A    between atoms: _21  and  _23
REMARK   12  A    between atoms: _23  and  _24
REMARK   13  A    between atoms: _23  and  _26
REMARK   14  A    between atoms: _26  and  _27
REMARK   15  A    between atoms: _32  and  _34
REMARK   16  A    between atoms: _34  and  _35
REMARK   17  A    between atoms: _34  and  _37
REMARK   18  A    between atoms: _37  and  _38
REMARK   19  A    between atoms: _48  and  _50
REMARK   20  A    between atoms: _50  and  _51
REMARK   21  A    between atoms: _50  and  _53
REMARK   22  A    between atoms: _53  and  _54
REMARK   23  A    between atoms: _54  and  _55
REMARK   24  A    between atoms: _60  and  _62
REMARK   25  A    between atoms: _62  and  _63
REMARK   26  A    between atoms: _62  and  _65
REMARK   27  A    between atoms: _65  and  _66
REMARK   28  A    between atoms: _66  and  _67
REMARK   29  A    between atoms: _72  and  _74
REMARK   30  A    between atoms: _74  and  _75
REMARK   31  A    between atoms: _74  and  _77
REMARK   32  A    between atoms: _77  and  _78
REMARK   33  A    between atoms: _80  and  _82
REMARK   34  A    between atoms: _82  and  _83
REMARK   35  A    between atoms: _82  and  _85
REMARK   36  A    between atoms: _85  and  _86
REMARK   37  A    between atoms: _86  and  _87
REMARK   38  A    between atoms: _90  and  _92
REMARK   39  A    between atoms: _92  and  _93
REMARK   40  A    between atoms: _92  and  _95
REMARK   41  A    between atoms: _98  and  _100
REMARK   42  A    between atoms: _100  and  _101
REMARK   43  A    between atoms: _100  and  _103
REMARK   44  A    between atoms: _105  and  _107
REMARK   45  A    between atoms: _107  and  _108
REMARK   46  A    between atoms: _107  and  _110
REMARK   47  A    between atoms: _110  and  _111
REMARK   48  A    between atoms: _116  and  _118
REMARK   49  A    between atoms: _118  and  _119
REMARK   50  A    between atoms: _122  and  _124
REMARK   51  A    between atoms: _124  and  _125
REMARK   52  A    between atoms: _124  and  _127
REMARK   53  A    between atoms: _127  and  _128
REMARK   54  A    between atoms: _130  and  _132
REMARK   55  A    between atoms: _132  and  _133
REMARK   56  A    between atoms: _136  and  _138
REMARK   57  A    between atoms: _138  and  _139
REMARK   58  A    between atoms: _138  and  _141
REMARK   59  A    between atoms: _141  and  _142
REMARK   60  A    between atoms: _152  and  _154
REMARK   61  A    between atoms: _154  and  _155
REMARK   62  A    between atoms: _154  and  _157
REMARK   63  A    between atoms: _157  and  _158
REMARK   64  A    between atoms: _161  and  _163
REMARK   65  A    between atoms: _163  and  _164
REMARK   66  A    between atoms: _163  and  _166
REMARK   67  A    between atoms: _166  and  _167
REMARK   68  A    between atoms: _172  and  _173
REMARK   69  A    between atoms: _175  and  _177
REMARK   70  A    between atoms: _177  and  _178
REMARK   71  A    between atoms: _177  and  _180
REMARK   72  A    between atoms: _180  and  _181
REMARK   73  A    between atoms: _181  and  _182
REMARK   74  A    between atoms: _182  and  _183
REMARK   75  A    between atoms: _192  and  _194
REMARK   76  A    between atoms: _194  and  _195
REMARK   77  A    between atoms: _194  and  _197
REMARK   78  A    between atoms: _197  and  _198
REMARK   79  A    between atoms: _201  and  _203
REMARK   80  A    between atoms: _203  and  _204
REMARK   81  A    between atoms: _203  and  _206
REMARK   82  A    between atoms: _206  and  _207
REMARK   83  A    between atoms: _207  and  _208
REMARK   84  A    between atoms: _208  and  _209
REMARK   85  A    between atoms: _209  and  _210
REMARK   86  A    between atoms: _214  and  _216
REMARK   87  A    between atoms: _216  and  _217
REMARK   88  A    between atoms: _216  and  _219
REMARK   89  A    between atoms: _219  and  _220
REMARK   90  A    between atoms: _220  and  _221
REMARK   91  A    between atoms: _226  and  _228
REMARK   92  A    between atoms: _228  and  _229
REMARK   93  A    between atoms: _228  and  _231
REMARK   94  A    between atoms: _231  and  _232
REMARK   95  A    between atoms: _232  and  _233
REMARK   96  A    between atoms: _233  and  _234
REMARK   97  A    between atoms: _243  and  _245
REMARK   98  A    between atoms: _245  and  _246
REMARK   99  A    between atoms: _245  and  _248
REMARK  100  A    between atoms: _248  and  _249
REMARK  101  A    between atoms: _252  and  _254
REMARK  102  A    between atoms: _254  and  _255
REMARK  103  A    between atoms: _254  and  _257
REMARK  104  A    between atoms: _257  and  _258
REMARK  105  A    between atoms: _258  and  _259
REMARK  106  A    between atoms: _264  and  _266
REMARK  107  A    between atoms: _266  and  _267
REMARK  108  A    between atoms: _266  and  _269
REMARK  109  A    between atoms: _269  and  _270
REMARK  110  A    between atoms: _273  and  _275
REMARK  111  A    between atoms: _275  and  _276
REMARK  112  A    between atoms: _275  and  _278
REMARK  113  A    between atoms: _278  and  _279
REMARK  114  A    between atoms: _279  and  _280
REMARK  115  A    between atoms: _285  and  _287
REMARK  116  A    between atoms: _287  and  _288
REMARK  117  A    between atoms: _287  and  _290
REMARK  118  A    between atoms: _290  and  _291
REMARK  119  A    between atoms: _294  and  _296
REMARK  120  A    between atoms: _296  and  _297
REMARK  121  A    between atoms: _296  and  _299
REMARK  122  A    between atoms: _299  and  _300
REMARK  123  A    between atoms: _306  and  _308
REMARK  124  A    between atoms: _308  and  _309
REMARK  125  A    between atoms: _308  and  _311
REMARK  126  A    between atoms: _311  and  _312
REMARK  127  A    between atoms: _315  and  _317
REMARK  128  A    between atoms: _317  and  _318
REMARK  129  A    between atoms: _317  and  _320
REMARK  130  A    between atoms: _323  and  _325
REMARK  131  A    between atoms: _325  and  _326
REMARK  132  A    between atoms: _325  and  _328
REMARK  133  A    between atoms: _328  and  _329
REMARK  134  A    between atoms: _334  and  _336
REMARK  135  A    between atoms: _347  and  _350
REMARK  136  A    between atoms: _350  and  _351
REMARK  137  A    between atoms: _351  and  _352
REMARK  138  A    between atoms: _357  and  _360
REMARK  139  A    between atoms: _360  and  _361
REMARK  140  A    between atoms: _371  and  _372
REMARK  141  A    between atoms: _380  and  _382
REMARK  142  A    between atoms: _382  and  _383
REMARK  143  A    between atoms: _382  and  _385
REMARK  144  A    between atoms: _385  and  _386
REMARK  145  A    between atoms: _389  and  _391
REMARK  146  A    between atoms: _391  and  _392
REMARK  147  A    between atoms: _391  and  _394
REMARK  148  A    between atoms: _394  and  _395
REMARK  149  A    between atoms: _400  and  _401
REMARK  150  A    between atoms: _403  and  _405
REMARK  151  A    between atoms: _405  and  _406
REMARK  152  A    between atoms: _405  and  _408
REMARK  153  A    between atoms: _408  and  _409
REMARK  154  A    between atoms: _415  and  _417
REMARK  155  A    between atoms: _417  and  _418
REMARK  156  A    between atoms: _417  and  _420
REMARK  157  A    between atoms: _420  and  _421
REMARK  158  A    between atoms: _426  and  _427
REMARK  159  A    between atoms: _429  and  _431
REMARK  160  A    between atoms: _431  and  _432
REMARK  161  A    between atoms: _431  and  _434
REMARK  162  A    between atoms: _434  and  _435
REMARK  163  A    between atoms: _435  and  _436
REMARK  164  A    between atoms: _436  and  _437
REMARK  165  A    between atoms: _446  and  _448
REMARK  166  A    between atoms: _448  and  _449
REMARK  167  A    between atoms: _448  and  _451
REMARK  168  A    between atoms: _451  and  _452
REMARK  169  A    between atoms: _455  and  _457
REMARK  170  A    between atoms: _457  and  _458
REMARK  171  A    between atoms: _460  and  _462
REMARK  172  A    between atoms: _462  and  _463
REMARK  173  A    between atoms: _462  and  _465
REMARK  174  A    between atoms: _465  and  _466
REMARK  175  A    between atoms: _472  and  _473
REMARK  176  A    between atoms: _478  and  _480
REMARK  177  A    between atoms: _480  and  _481
REMARK  178  A    between atoms: _483  and  _485
REMARK  179  A    between atoms: _485  and  _486
REMARK  180  A    between atoms: _485  and  _488
REMARK  181  A    between atoms: _488  and  _489
REMARK  182  A    between atoms: _495  and  _497
REMARK  183  A    between atoms: _497  and  _498
REMARK  184  A    between atoms: _497  and  _500
REMARK  185  A    between atoms: _500  and  _501
REMARK  186  A    between atoms: _506  and  _508
REMARK  187  A    between atoms: _508  and  _509
REMARK  188  A    between atoms: _508  and  _511
REMARK  189  A    between atoms: _511  and  _512
REMARK  190  A    between atoms: _512  and  _513
REMARK  191  A    between atoms: _513  and  _514
REMARK  192  A    between atoms: _514  and  ZN_788
REMARK  193  A    between atoms: _516  and  _518
REMARK  194  A    between atoms: _518  and  _519
REMARK  195  A    between atoms: _522  and  _524
REMARK  196  A    between atoms: _524  and  _525
REMARK  197  A    between atoms: _527  and  _529
REMARK  198  A    between atoms: _529  and  _530
REMARK  199  A    between atoms: _529  and  _532
REMARK  200  A    between atoms: _532  and  _533
REMARK  201  A    between atoms: _536  and  _538
REMARK  202  A    between atoms: _538  and  _539
REMARK  203  A    between atoms: _538  and  _541
REMARK  204  A    between atoms: _544  and  _546
REMARK  205  A    between atoms: _546  and  _547
REMARK  206  A    between atoms: _546  and  _549
REMARK  207  A    between atoms: _549  and  _550
REMARK  208  A    between atoms: _552  and  _554
REMARK  209  A    between atoms: _554  and  _555
REMARK  210  A    between atoms: _554  and  _557
REMARK  211  A    between atoms: _557  and  _558
REMARK  212  A    between atoms: _561  and  _563
REMARK  213  A    between atoms: _563  and  _564
REMARK  214  A    between atoms: _563  and  _566
REMARK  215  A    between atoms: _566  and  _567
REMARK  216  A    between atoms: _570  and  _572
REMARK  217  A    between atoms: _572  and  _573
REMARK  218  A    between atoms: _572  and  _575
REMARK  219  A    between atoms: _575  and  _576
REMARK  220  A    between atoms: _576  and  _577
REMARK  221  A    between atoms: _577  and  _578
REMARK  222  A    between atoms: _578  and  _579
REMARK  223  A    between atoms: _583  and  _585
REMARK  224  A    between atoms: _585  and  _586
REMARK  225  A    between atoms: _585  and  _588
REMARK  226  A    between atoms: _588  and  _589
REMARK  227  A    between atoms: _595  and  _597
REMARK  228  A    between atoms: _597  and  _598
REMARK  229  A    between atoms: _597  and  _600
REMARK  230  A    between atoms: _600  and  _601
REMARK  231  A    between atoms: _607  and  _609
REMARK  232  A    between atoms: _609  and  _610
REMARK  233  A    between atoms: _613  and  _615
REMARK  234  A    between atoms: _615  and  _616
REMARK  235  A    between atoms: _615  and  _618
REMARK  236  A    between atoms: _618  and  _619
REMARK  237  A    between atoms: _619  and  _620
REMARK  238  A    between atoms: _622  and  _624
REMARK  239  A    between atoms: _624  and  _625
REMARK  240  A    between atoms: _624  and  _627
REMARK  241  A    between atoms: _627  and  _628
REMARK  242  A    between atoms: _628  and  _629
REMARK  243  A    between atoms: _629  and  _630
REMARK  244  A    between atoms: _630  and  _631
REMARK  245  A    between atoms: _635  and  _637
REMARK  246  A    between atoms: _637  and  _638
REMARK  247  A    between atoms: _637  and  _640
REMARK  248  A    between atoms: _640  and  _641
REMARK  249  A    between atoms: _646  and  _647
REMARK  250  A    between atoms: _649  and  _651
REMARK  251  A    between atoms: _651  and  _652
REMARK  252  A    between atoms: _651  and  _654
REMARK  253  A    between atoms: _654  and  _655
REMARK  254  A    between atoms: _660  and  _662
REMARK  255  A    between atoms: _662  and  _663
REMARK  256  A    between atoms: _662  and  _665
REMARK  257  A    between atoms: _665  and  _666
REMARK  258  A    between atoms: _669  and  _671
REMARK  259  A    between atoms: _671  and  _672
REMARK  260  A    between atoms: _675  and  _677
REMARK  261  A    between atoms: _677  and  _678
REMARK  262  A    between atoms: _677  and  _680
REMARK  263  A    between atoms: _680  and  _681
REMARK  264  A    between atoms: _684  and  _686
REMARK  265  A    between atoms: _686  and  _687
REMARK  266  A    between atoms: _686  and  _689
REMARK  267  A    between atoms: _692  and  _694
REMARK  268  A    between atoms: _694  and  _695
REMARK  269  A    between atoms: _694  and  _697
REMARK  270  A    between atoms: _697  and  _698
REMARK  271  A    between atoms: _698  and  _699
REMARK  272  A    between atoms: _702  and  _704
REMARK  273  A    between atoms: _704  and  _705
REMARK  274  A    between atoms: _704  and  _707
REMARK  275  A    between atoms: _707  and  _708
REMARK  276  A    between atoms: _713  and  _714
REMARK  277  A    between atoms: _716  and  _718
REMARK  278  A    between atoms: _718  and  _719
REMARK  279  A    between atoms: _718  and  _721
REMARK  280  A    between atoms: _721  and  _722
REMARK  281  A    between atoms: _722  and  _723
REMARK  282  A    between atoms: _723  and  _724
REMARK  283  A    between atoms: _733  and  _735
REMARK  284  A    between atoms: _735  and  _736
REMARK  285  A    between atoms: _735  and  _738
REMARK  286  A    between atoms: _738  and  _739
REMARK  287  A    between atoms: _744  and  _745
REMARK  288  A    between atoms: _747  and  _749
REMARK  289  A    between atoms: _749  and  _750
REMARK  290  A    between atoms: _749  and  _752
REMARK  291  A    between atoms: _752  and  _753
REMARK  292  A    between atoms: _756  and  _758
REMARK  293  A    between atoms: _758  and  _759
REMARK  294  A    between atoms: _758  and  _761
REMARK  295  A    between atoms: _761  and  _762
REMARK  296  A    between atoms: _764  and  _766
REMARK  297  A    between atoms: _766  and  _767
REMARK  298  A    between atoms: _766  and  _769
REMARK  299  A    between atoms: _769  and  _770
REMARK  300  A    between atoms: _776  and  _778
REMARK  301  A    between atoms: _778  and  _779
REMARK  302  A    between atoms: _778  and  _781
REMARK  303  A    between atoms: _781  and  _782
REMARK  304  A    between atoms: _782  and  _783
REMARK                            x       y       z     vdW  Elec       q    Type
REMARK                         _______ _______ _______ _____ _____    ______ ____
ROOT
ATOM      1  CA  TYR A   2      33.813   4.016 -49.206  0.00  0.00    +0.153 C 
ENDROOT
BRANCH   1   3
ATOM      2  C   ARG A   1      33.578   2.108 -50.718  0.00  0.00    +0.238 C 
ATOM      3  N   TYR A   2      34.022   2.616 -49.570  0.00  0.00    -0.297 N 
ATOM      4  H   TYR A   2      34.534   1.996 -48.911  0.00  0.00    +0.150 HD
ATOM      5  O   ARG A   1      32.978   2.771 -51.565  0.00  0.00    -0.274 OA
BRANCH   2   6
ATOM      6  CA  ARG A   1      33.826   0.622 -50.943  0.00  0.00    +0.145 C 
BRANCH   6   7
ATOM      7  N   ARG A   1      35.129   0.189 -50.445  0.00  0.00    -0.238 NA
ATOM      8  H   ARG A   1      35.190  -0.711 -49.927  0.00  0.00    +0.142 HD
ENDBRANCH   6   7
BRANCH   6   9
ATOM      9  CB  ARG A   1      32.708  -0.184 -50.278  0.00  0.00    +0.030 C 
BRANCH   9  10
ATOM     10  CG  ARG A   1      32.677  -0.075 -48.752  0.00  0.00    +0.045 C 
BRANCH  10  11
ATOM     11  CD  ARG A   1      31.664  -1.030 -48.135  0.00  0.00    +0.174 C 
BRANCH  11  12
ATOM     12  NE  ARG A   1      31.985  -2.429 -48.425  0.00  0.00    -0.265 N 
ATOM     13  CZ  ARG A   1      31.221  -3.459 -48.088  0.00  0.00    +0.342 C 
ATOM     14  NH2 ARG A   1      30.081  -3.269 -47.437  0.00  0.00    -0.292 N 
ATOM     15 HH21 ARG A   1      29.489  -4.083 -47.177  0.00  0.00    +0.255 HD
ATOM     16 HH22 ARG A   1      29.780  -2.306 -47.187  0.00  0.00    +0.255 HD
ATOM     17  NH1 ARG A   1      31.601  -4.687 -48.397  0.00  0.00    -0.292 N 
ATOM     18 HH11 ARG A   1      31.005  -5.497 -48.134  0.00  0.00    +0.255 HD
ATOM     19 HH12 ARG A   1      32.496  -4.843 -48.903  0.00  0.00    +0.255 HD
ATOM     20  HE  ARG A   1      32.872  -2.628 -48.929  0.00  0.00    +0.259 HD
ENDBRANCH  11  12
ENDBRANCH  10  11
ENDBRANCH   9  10
ENDBRANCH   6   9
ENDBRANCH   2   6
ENDBRANCH   1   3
BRANCH   1  21
ATOM     21  C   TYR A   2      34.759   4.976 -49.938  0.00  0.00    +0.241 C 
ATOM     22  N   LEU A   3      36.034   4.625 -50.083  0.00  0.00    -0.298 N 
ATOM     23  H   LEU A   3      36.398   3.782 -49.595  0.00  0.00    +0.150 HD
ATOM     24  O   TYR A   2      34.335   6.035 -50.362  0.00  0.00    -0.273 OA
BRANCH  22  25
ATOM     25  CA  LEU A   3      36.921   5.418 -50.923  0.00  0.00    +0.137 C 
BRANCH  25  26
ATOM     26  C   LEU A   3      36.305   5.527 -52.336  0.00  0.00    +0.227 C 
ATOM     27  O   LEU A   3      36.217   6.619 -52.910  0.00  0.00    -0.286 OA
ENDBRANCH  25  26
BRANCH  25  28
ATOM     28  CB  LEU A   3      38.328   4.803 -50.987  0.00  0.00    +0.028 C 
BRANCH  28  29
ATOM     29  CG  LEU A   3      39.328   5.397 -51.986  0.00  0.00    +0.002 C 
ATOM     30  CD2 LEU A   3      39.465   6.904 -51.829  0.00  0.00    +0.000 C 
ATOM     31  CD1 LEU A   3      40.696   4.738 -51.864  0.00  0.00    +0.000 C 
ENDBRANCH  28  29
ENDBRANCH  25  28
ENDBRANCH  22  25
ENDBRANCH   1  21
BRANCH   1  32
ATOM     32  CB  TYR A   2      33.942   4.195 -47.694  0.00  0.00    +0.055 C 
BRANCH  32  33
ATOM     33  CG  TYR A   2      32.939   3.397 -46.899  0.00  0.00    -0.020 A 
ATOM     34  CD2 TYR A   2      33.334   2.351 -46.081  0.00  0.00    -0.001 A 
ATOM     35  CE2 TYR A   2      32.411   1.623 -45.345  0.00  0.00    +0.036 A 
ATOM     36  CZ  TYR A   2      31.067   1.931 -45.416  0.00  0.00    +0.134 A 
ATOM     37  CE1 TYR A   2      30.649   2.957 -46.240  0.00  0.00    +0.036 A 
ATOM     38  CD1 TYR A   2      31.584   3.694 -46.955  0.00  0.00    -0.001 A 
BRANCH  36  39
ATOM     39  OH  TYR A   2      30.144   1.208 -44.679  0.00  0.00    -0.506 OA
ATOM     40  HH  TYR A   2      29.236   1.563 -44.850  0.00  0.00    +0.292 HD
ENDBRANCH  36  39
ENDBRANCH  32  33
ENDBRANCH   1  32
TORSDOF 15
REMARK  Name = ../refined-set-2016/4ca8/4ca8_pocket.pdb
REMARK  304 active torsions:
REMARK  status: ('A' for Active; 'I' for Inactive)
REMARK    1  A    between atoms: _1  and  _3
REMARK    2  A    between atoms: _3  and  _4
REMARK    3  A    between atoms: _3  and  _6
REMARK    4  A    between atoms: _6  and  _7
REMARK    5  A    between atoms: _7  and  _8
REMARK    6  A    between atoms: _11  and  _13
REMARK    7  A    between atoms: _13  and  _14
REMARK    8  A    between atoms: _13  and  _16
REMARK    9  A    between atoms: _16  and  _17
REMARK   10  A    between atoms: _17  and  _18
REMARK   11  A    between atoms: _21  and  _23
REMARK   12  A    between atoms: _23  and  _24
REMARK   13  A    between atoms: _23  and  _26
REMARK   14  A    between atoms: _26  and  _27
REMARK   15  A    between atoms: _32  and  _34
REMARK   16  A    between atoms: _34  and  _35
REMARK   17  A    between atoms: _34  and  _37
REMARK   18  A    between atoms: _37  and  _38
REMARK   19  A    between atoms: _48  and  _50
REMARK   20  A    between atoms: _50  and  _51
REMARK   21  A    between atoms: _50  and  _53
REMARK   22  A    between atoms: _53  and  _54
REMARK   23  A    between atoms: _54  and  _55
REMARK   24  A    between atoms: _60  and  _62
REMARK   25  A    between atoms: _62  and  _63
REMARK   26  A    between atoms: _62  and  _65
REMARK   27  A    between atoms: _65  and  _66
REMARK   28  A    between atoms: _66  and  _67
REMARK   29  A    between atoms: _72  and  _74
REMARK   30  A    between atoms: _74  and  _75
REMARK   31  A    between atoms: _74  and  _77
REMARK   32  A    between atoms: _77  and  _78
REMARK   33  A    between atoms: _80  and  _82
REMARK   34  A    between atoms: _82  and  _83
REMARK   35  A    between atoms: _82  and  _85
REMARK   36  A    between atoms: _85  and  _86
REMARK   37  A    between atoms: _86  and  _87
REMARK   38  A    between atoms: _90  and  _92
REMARK   39  A    between atoms: _92  and  _93
REMARK   40  A    between atoms: _92  and  _95
REMARK   41  A    between atoms: _98  and  _100
REMARK   42  A    between atoms: _100  and  _101
REMARK   43  A    between atoms: _100  and  _103
REMARK   44  A    between atoms: _105  and  _107
REMARK   45  A    between atoms: _107  and  _108
REMARK   46  A    between atoms: _107  and  _110
REMARK   47  A    between atoms: _110  and  _111
REMARK   48  A    between atoms: _116  and  _118
REMARK   49  A    between atoms: _118  and  _119
REMARK   50  A    between atoms: _122  and  _124
REMARK   51  A    between atoms: _124  and  _125
REMARK   52  A    between atoms: _124  and  _127
REMARK   53  A    between atoms: _127  and  _128
REMARK   54  A    between atoms: _130  and  _132
REMARK   55  A    between atoms: _132  and  _133
REMARK   56  A    between atoms: _136  and  _138
REMARK   57  A    between atoms: _138  and  _139
REMARK   58  A    between atoms: _138  and  _141
REMARK   59  A    between atoms: _141  and  _142
REMARK   60  A    between atoms: _152  and  _154
REMARK   61  A    between atoms: _154  and  _155
REMARK   62  A    between atoms: _154  and  _157
REMARK   63  A    between atoms: _157  and  _158
REMARK   64  A    between atoms: _161  and  _163
REMARK   65  A    between atoms: _163  and  _164
REMARK   66  A    between atoms: _163  and  _166
REMARK   67  A    between atoms: _166  and  _167
REMARK   68  A    between atoms: _172  and  _173
REMARK   69  A    between atoms: _175  and  _177
REMARK   70  A    between atoms: _177  and  _178
REMARK   71  A    between atoms: _177  and  _180
REMARK   72  A    between atoms: _180  and  _181
REMARK   73  A    between atoms: _181  and  _182
REMARK   74  A    between atoms: _182  and  _183
REMARK   75  A    between atoms: _192  and  _194
REMARK   76  A    between atoms: _194  and  _195
REMARK   77  A    between atoms: _194  and  _197
REMARK   78  A    between atoms: _197  and  _198
REMARK   79  A    between atoms: _201  and  _203
REMARK   80  A    between atoms: _203  and  _204
REMARK   81  A    between atoms: _203  and  _206
REMARK   82  A    between atoms: _206  and  _207
REMARK   83  A    between atoms: _207  and  _208
REMARK   84  A    between atoms: _208  and  _209
REMARK   85  A    between atoms: _209  and  _210
REMARK   86  A    between atoms: _214  and  _216
REMARK   87  A    between atoms: _216  and  _217
REMARK   88  A    between atoms: _216  and  _219
REMARK   89  A    between atoms: _219  and  _220
REMARK   90  A    between atoms: _220  and  _221
REMARK   91  A    between atoms: _226  and  _228
REMARK   92  A    between atoms: _228  and  _229
REMARK   93  A    between atoms: _228  and  _231
REMARK   94  A    between atoms: _231  and  _232
REMARK   95  A    between atoms: _232  and  _233
REMARK   96  A    between atoms: _233  and  _234
REMARK   97  A    between atoms: _243  and  _245
REMARK   98  A    between atoms: _245  and  _246
REMARK   99  A    between atoms: _245  and  _248
REMARK  100  A    between atoms: _248  and  _249
REMARK  101  A    between atoms: _252  and  _254
REMARK  102  A    between atoms: _254  and  _255
REMARK  103  A    between atoms: _254  and  _257
REMARK  104  A    between atoms: _257  and  _258
REMARK  105  A    between atoms: _258  and  _259
REMARK  106  A    between atoms: _264  and  _266
REMARK  107  A    between atoms: _266  and  _267
REMARK  108  A    between atoms: _266  and  _269
REMARK  109  A    between atoms: _269  and  _270
REMARK  110  A    between atoms: _273  and  _275
REMARK  111  A    between atoms: _275  and  _276
REMARK  112  A    between atoms: _275  and  _278
REMARK  113  A    between atoms: _278  and  _279
REMARK  114  A    between atoms: _279  and  _280
REMARK  115  A    between atoms: _285  and  _287
REMARK  116  A    between atoms: _287  and  _288
REMARK  117  A    between atoms: _287  and  _290
REMARK  118  A    between atoms: _290  and  _291
REMARK  119  A    between atoms: _294  and  _296
REMARK  120  A    between atoms: _296  and  _297
REMARK  121  A    between atoms: _296  and  _299
REMARK  122  A    between atoms: _299  and  _300
REMARK  123  A    between atoms: _306  and  _308
REMARK  124  A    between atoms: _308  and  _309
REMARK  125  A    between atoms: _308  and  _311
REMARK  126  A    between atoms: _311  and  _312
REMARK  127  A    between atoms: _315  and  _317
REMARK  128  A    between atoms: _317  and  _318
REMARK  129  A    between atoms: _317  and  _320
REMARK  130  A    between atoms: _323  and  _325
REMARK  131  A    between atoms: _325  and  _326
REMARK  132  A    between atoms: _325  and  _328
REMARK  133  A    between atoms: _328  and  _329
REMARK  134  A    between atoms: _334  and  _336
REMARK  135  A    between atoms: _347  and  _350
REMARK  136  A    between atoms: _350  and  _351
REMARK  137  A    between atoms: _351  and  _352
REMARK  138  A    between atoms: _357  and  _360
REMARK  139  A    between atoms: _360  and  _361
REMARK  140  A    between atoms: _371  and  _372
REMARK  141  A    between atoms: _380  and  _382
REMARK  142  A    between atoms: _382  and  _383
REMARK  143  A    between atoms: _382  and  _385
REMARK  144  A    between atoms: _385  and  _386
REMARK  145  A    between atoms: _389  and  _391
REMARK  146  A    between atoms: _391  and  _392
REMARK  147  A    between atoms: _391  and  _394
REMARK  148  A    between atoms: _394  and  _395
REMARK  149  A    between atoms: _400  and  _401
REMARK  150  A    between atoms: _403  and  _405
REMARK  151  A    between atoms: _405  and  _406
REMARK  152  A    between atoms: _405  and  _408
REMARK  153  A    between atoms: _408  and  _409
REMARK  154  A    between atoms: _415  and  _417
REMARK  155  A    between atoms: _417  and  _418
REMARK  156  A    between atoms: _417  and  _420
REMARK  157  A    between atoms: _420  and  _421
REMARK  158  A    between atoms: _426  and  _427
REMARK  159  A    between atoms: _429  and  _431
REMARK  160  A    between atoms: _431  and  _432
REMARK  161  A    between atoms: _431  and  _434
REMARK  162  A    between atoms: _434  and  _435
REMARK  163  A    between atoms: _435  and  _436
REMARK  164  A    between atoms: _436  and  _437
REMARK  165  A    between atoms: _446  and  _448
REMARK  166  A    between atoms: _448  and  _449
REMARK  167  A    between atoms: _448  and  _451
REMARK  168  A    between atoms: _451  and  _452
REMARK  169  A    between atoms: _455  and  _457
REMARK  170  A    between atoms: _457  and  _458
REMARK  171  A    between atoms: _460  and  _462
REMARK  172  A    between atoms: _462  and  _463
REMARK  173  A    between atoms: _462  and  _465
REMARK  174  A    between atoms: _465  and  _466
REMARK  175  A    between atoms: _472  and  _473
REMARK  176  A    between atoms: _478  and  _480
REMARK  177  A    between atoms: _480  and  _481
REMARK  178  A    between atoms: _483  and  _485
REMARK  179  A    between atoms: _485  and  _486
REMARK  180  A    between atoms: _485  and  _488
REMARK  181  A    between atoms: _488  and  _489
REMARK  182  A    between atoms: _495  and  _497
REMARK  183  A    between atoms: _497  and  _498
REMARK  184  A    between atoms: _497  and  _500
REMARK  185  A    between atoms: _500  and  _501
REMARK  186  A    between atoms: _506  and  _508
REMARK  187  A    between atoms: _508  and  _509
REMARK  188  A    between atoms: _508  and  _511
REMARK  189  A    between atoms: _511  and  _512
REMARK  190  A    between atoms: _512  and  _513
REMARK  191  A    between atoms: _513  and  _514
REMARK  192  A    between atoms: _514  and  ZN_788
REMARK  193  A    between atoms: _516  and  _518
REMARK  194  A    between atoms: _518  and  _519
REMARK  195  A    between atoms: _522  and  _524
REMARK  196  A    between atoms: _524  and  _525
REMARK  197  A    between atoms: _527  and  _529
REMARK  198  A    between atoms: _529  and  _530
REMARK  199  A    between atoms: _529  and  _532
REMARK  200  A    between atoms: _532  and  _533
REMARK  201  A    between atoms: _536  and  _538
REMARK  202  A    between atoms: _538  and  _539
REMARK  203  A    between atoms: _538  and  _541
REMARK  204  A    between atoms: _544  and  _546
REMARK  205  A    between atoms: _546  and  _547
REMARK  206  A    between atoms: _546  and  _549
REMARK  207  A    between atoms: _549  and  _550
REMARK  208  A    between atoms: _552  and  _554
REMARK  209  A    between atoms: _554  and  _555
REMARK  210  A    between atoms: _554  and  _557
REMARK  211  A    between atoms: _557  and  _558
REMARK  212  A    between atoms: _561  and  _563
REMARK  213  A    between atoms: _563  and  _564
REMARK  214  A    between atoms: _563  and  _566
REMARK  215  A    between atoms: _566  and  _567
REMARK  216  A    between atoms: _570  and  _572
REMARK  217  A    between atoms: _572  and  _573
REMARK  218  A    between atoms: _572  and  _575
REMARK  219  A    between atoms: _575  and  _576
REMARK  220  A    between atoms: _576  and  _577
REMARK  221  A    between atoms: _577  and  _578
REMARK  222  A    between atoms: _578  and  _579
REMARK  223  A    between atoms: _583  and  _585
REMARK  224  A    between atoms: _585  and  _586
REMARK  225  A    between atoms: _585  and  _588
REMARK  226  A    between atoms: _588  and  _589
REMARK  227  A    between atoms: _595  and  _597
REMARK  228  A    between atoms: _597  and  _598
REMARK  229  A    between atoms: _597  and  _600
REMARK  230  A    between atoms: _600  and  _601
REMARK  231  A    between atoms: _607  and  _609
REMARK  232  A    between atoms: _609  and  _610
REMARK  233  A    between atoms: _613  and  _615
REMARK  234  A    between atoms: _615  and  _616
REMARK  235  A    between atoms: _615  and  _618
REMARK  236  A    between atoms: _618  and  _619
REMARK  237  A    between atoms: _619  and  _620
REMARK  238  A    between atoms: _622  and  _624
REMARK  239  A    between atoms: _624  and  _625
REMARK  240  A    between atoms: _624  and  _627
REMARK  241  A    between atoms: _627  and  _628
REMARK  242  A    between atoms: _628  and  _629
REMARK  243  A    between atoms: _629  and  _630
REMARK  244  A    between atoms: _630  and  _631
REMARK  245  A    between atoms: _635  and  _637
REMARK  246  A    between atoms: _637  and  _638
REMARK  247  A    between atoms: _637  and  _640
REMARK  248  A    between atoms: _640  and  _641
REMARK  249  A    between atoms: _646  and  _647
REMARK  250  A    between atoms: _649  and  _651
REMARK  251  A    between atoms: _651  and  _652
REMARK  252  A    between atoms: _651  and  _654
REMARK  253  A    between atoms: _654  and  _655
REMARK  254  A    between atoms: _660  and  _662
REMARK  255  A    between atoms: _662  and  _663
REMARK  256  A    between atoms: _662  and  _665
REMARK  257  A    between atoms: _665  and  _666
REMARK  258  A    between atoms: _669  and  _671
REMARK  259  A    between atoms: _671  and  _672
REMARK  260  A    between atoms: _675  and  _677
REMARK  261  A    between atoms: _677  and  _678
REMARK  262  A    between atoms: _677  and  _680
REMARK  263  A    between atoms: _680  and  _681
REMARK  264  A    between atoms: _684  and  _686
REMARK  265  A    between atoms: _686  and  _687
REMARK  266  A    between atoms: _686  and  _689
REMARK  267  A    between atoms: _692  and  _694
REMARK  268  A    between atoms: _694  and  _695
REMARK  269  A    between atoms: _694  and  _697
REMARK  270  A    between atoms: _697  and  _698
REMARK  271  A    between atoms: _698  and  _699
REMARK  272  A    between atoms: _702  and  _704
REMARK  273  A    between atoms: _704  and  _705
REMARK  274  A    between atoms: _704  and  _707
REMARK  275  A    between atoms: _707  and  _708
REMARK  276  A    between atoms: _713  and  _714
REMARK  277  A    between atoms: _716  and  _718
REMARK  278  A    between atoms: _718  and  _719
REMARK  279  A    between atoms: _718  and  _721
REMARK  280  A    between atoms: _721  and  _722
REMARK  281  A    between atoms: _722  and  _723
REMARK  282  A    between atoms: _723  and  _724
REMARK  283  A    between atoms: _733  and  _735
REMARK  284  A    between atoms: _735  and  _736
REMARK  285  A    between atoms: _735  and  _738
REMARK  286  A    between atoms: _738  and  _739
REMARK  287  A    between atoms: _744  and  _745
REMARK  288  A    between atoms: _747  and  _749
REMARK  289  A    between atoms: _749  and  _750
REMARK  290  A    between atoms: _749  and  _752
REMARK  291  A    between atoms: _752  and  _753
REMARK  292  A    between atoms: _756  and  _758
REMARK  293  A    between atoms: _758  and  _759
REMARK  294  A    between atoms: _758  and  _761
REMARK  295  A    between atoms: _761  and  _762
REMARK  296  A    between atoms: _764  and  _766
REMARK  297  A    between atoms: _766  and  _767
REMARK  298  A    between atoms: _766  and  _769
REMARK  299  A    between atoms: _769  and  _770
REMARK  300  A    between atoms: _776  and  _778
REMARK  301  A    between atoms: _778  and  _779
REMARK  302  A    between atoms: _778  and  _781
REMARK  303  A    between atoms: _781  and  _782
REMARK  304  A    between atoms: _782  and  _783
REMARK                            x       y       z     vdW  Elec       q    Type
REMARK                         _______ _______ _______ _____ _____    ______ ____
ROOT
ATOM      1  C   SER A   1      32.246   7.397 -53.096  0.00  0.00    +0.241 C 
ATOM      2  N   PHE A   2      33.213   7.825 -52.294  0.00  0.00    -0.298 N 
ATOM      3  H   PHE A   2      33.753   7.143 -51.724  0.00  0.00    +0.150 HD
ATOM      4  O   SER A   1      31.577   8.167 -53.771  0.00  0.00    -0.274 OA
ENDROOT
BRANCH   1   5
ATOM      5  CA  SER A   1      31.976   5.898 -53.137  0.00  0.00    +0.174 C 
BRANCH   5   6
ATOM      6  N   SER A   1      33.199   5.106 -53.276  0.00  0.00    -0.236 NA
ATOM      7  H   SER A   1      33.418   4.401 -52.543  0.00  0.00    +0.142 HD
ENDBRANCH   5   6
BRANCH   5   8
ATOM      8  CB  SER A   1      31.231   5.495 -51.861  0.00  0.00    +0.163 C 
BRANCH   8   9
ATOM      9  OG  SER A   1      30.173   6.390 -51.585  0.00  0.00    -0.380 OA
ATOM     10  H   SER A   1      29.710   6.106 -50.757  0.00  0.00    +0.211 HD
ENDBRANCH   8   9
ENDBRANCH   5   8
ENDBRANCH   1   5
BRANCH   2  11
ATOM     11  CA  PHE A   2      33.524   9.256 -52.208  0.00  0.00    +0.141 C 
BRANCH  11  12
ATOM     12  C   PHE A   2      34.032   9.835 -53.531  0.00  0.00    +0.227 C 
ATOM     13  O   PHE A   2      33.854  11.019 -53.780  0.00  0.00    -0.286 OA
ENDBRANCH  11  12
BRANCH  11  14
ATOM     14  CB  PHE A   2      34.483   9.548 -51.072  0.00  0.00    +0.054 C 
BRANCH  14  15
ATOM     15  CG  PHE A   2      33.791   9.715 -49.743  0.00  0.00    -0.020 A 
ATOM     16  CD2 PHE A   2      34.069  10.796 -48.935  0.00  0.00    -0.004 A 
ATOM     17  CE2 PHE A   2      33.429  10.951 -47.713  0.00  0.00    -0.000 A 
ATOM     18  CZ  PHE A   2      32.497  10.021 -47.299  0.00  0.00    -0.000 A 
ATOM     19  CE1 PHE A   2      32.195   8.943 -48.109  0.00  0.00    -0.000 A 
ATOM     20  CD1 PHE A   2      32.844   8.791 -49.321  0.00  0.00    -0.004 A 
ENDBRANCH  14  15
ENDBRANCH  11  14
ENDBRANCH   2  11
TORSDOF 8
REMARK  Name = ../refined-set-2016/4ca8/4ca8_pocket.pdb
REMARK  304 active torsions:
REMARK  status: ('A' for Active; 'I' for Inactive)
REMARK    1  A    between atoms: _1  and  _3
REMARK    2  A    between atoms: _3  and  _4
REMARK    3  A    between atoms: _3  and  _6
REMARK    4  A    between atoms: _6  and  _7
REMARK    5  A    between atoms: _7  and  _8
REMARK    6  A    between atoms: _11  and  _13
REMARK    7  A    between atoms: _13  and  _14
REMARK    8  A    between atoms: _13  and  _16
REMARK    9  A    between atoms: _16  and  _17
REMARK   10  A    between atoms: _17  and  _18
REMARK   11  A    between atoms: _21  and  _23
REMARK   12  A    between atoms: _23  and  _24
REMARK   13  A    between atoms: _23  and  _26
REMARK   14  A    between atoms: _26  and  _27
REMARK   15  A    between atoms: _32  and  _34
REMARK   16  A    between atoms: _34  and  _35
REMARK   17  A    between atoms: _34  and  _37
REMARK   18  A    between atoms: _37  and  _38
REMARK   19  A    between atoms: _48  and  _50
REMARK   20  A    between atoms: _50  and  _51
REMARK   21  A    between atoms: _50  and  _53
REMARK   22  A    between atoms: _53  and  _54
REMARK   23  A    between atoms: _54  and  _55
REMARK   24  A    between atoms: _60  and  _62
REMARK   25  A    between atoms: _62  and  _63
REMARK   26  A    between atoms: _62  and  _65
REMARK   27  A    between atoms: _65  and  _66
REMARK   28  A    between atoms: _66  and  _67
REMARK   29  A    between atoms: _72  and  _74
REMARK   30  A    between atoms: _74  and  _75
REMARK   31  A    between atoms: _74  and  _77
REMARK   32  A    between atoms: _77  and  _78
REMARK   33  A    between atoms: _80  and  _82
REMARK   34  A    between atoms: _82  and  _83
REMARK   35  A    between atoms: _82  and  _85
REMARK   36  A    between atoms: _85  and  _86
REMARK   37  A    between atoms: _86  and  _87
REMARK   38  A    between atoms: _90  and  _92
REMARK   39  A    between atoms: _92  and  _93
REMARK   40  A    between atoms: _92  and  _95
REMARK   41  A    between atoms: _98  and  _100
REMARK   42  A    between atoms: _100  and  _101
REMARK   43  A    between atoms: _100  and  _103
REMARK   44  A    between atoms: _105  and  _107
REMARK   45  A    between atoms: _107  and  _108
REMARK   46  A    between atoms: _107  and  _110
REMARK   47  A    between atoms: _110  and  _111
REMARK   48  A    between atoms: _116  and  _118
REMARK   49  A    between atoms: _118  and  _119
REMARK   50  A    between atoms: _122  and  _124
REMARK   51  A    between atoms: _124  and  _125
REMARK   52  A    between atoms: _124  and  _127
REMARK   53  A    between atoms: _127  and  _128
REMARK   54  A    between atoms: _130  and  _132
REMARK   55  A    between atoms: _132  and  _133
REMARK   56  A    between atoms: _136  and  _138
REMARK   57  A    between atoms: _138  and  _139
REMARK   58  A    between atoms: _138  and  _141
REMARK   59  A    between atoms: _141  and  _142
REMARK   60  A    between atoms: _152  and  _154
REMARK   61  A    between atoms: _154  and  _155
REMARK   62  A    between atoms: _154  and  _157
REMARK   63  A    between atoms: _157  and  _158
REMARK   64  A    between atoms: _161  and  _163
REMARK   65  A    between atoms: _163  and  _164
REMARK   66  A    between atoms: _163  and  _166
REMARK   67  A    between atoms: _166  and  _167
REMARK   68  A    between atoms: _172  and  _173
REMARK   69  A    between atoms: _175  and  _177
REMARK   70  A    between atoms: _177  and  _178
REMARK   71  A    between atoms: _177  and  _180
REMARK   72  A    between atoms: _180  and  _181
REMARK   73  A    between atoms: _181  and  _182
REMARK   74  A    between atoms: _182  and  _183
REMARK   75  A    between atoms: _192  and  _194
REMARK   76  A    between atoms: _194  and  _195
REMARK   77  A    between atoms: _194  and  _197
REMARK   78  A    between atoms: _197  and  _198
REMARK   79  A    between atoms: _201  and  _203
REMARK   80  A    between atoms: _203  and  _204
REMARK   81  A    between atoms: _203  and  _206
REMARK   82  A    between atoms: _206  and  _207
REMARK   83  A    between atoms: _207  and  _208
REMARK   84  A    between atoms: _208  and  _209
REMARK   85  A    between atoms: _209  and  _210
REMARK   86  A    between atoms: _214  and  _216
REMARK   87  A    between atoms: _216  and  _217
REMARK   88  A    between atoms: _216  and  _219
REMARK   89  A    between atoms: _219  and  _220
REMARK   90  A    between atoms: _220  and  _221
REMARK   91  A    between atoms: _226  and  _228
REMARK   92  A    between atoms: _228  and  _229
REMARK   93  A    between atoms: _228  and  _231
REMARK   94  A    between atoms: _231  and  _232
REMARK   95  A    between atoms: _232  and  _233
REMARK   96  A    between atoms: _233  and  _234
REMARK   97  A    between atoms: _243  and  _245
REMARK   98  A    between atoms: _245  and  _246
REMARK   99  A    between atoms: _245  and  _248
REMARK  100  A    between atoms: _248  and  _249
REMARK  101  A    between atoms: _252  and  _254
REMARK  102  A    between atoms: _254  and  _255
REMARK  103  A    between atoms: _254  and  _257
REMARK  104  A    between atoms: _257  and  _258
REMARK  105  A    between atoms: _258  and  _259
REMARK  106  A    between atoms: _264  and  _266
REMARK  107  A    between atoms: _266  and  _267
REMARK  108  A    between atoms: _266  and  _269
REMARK  109  A    between atoms: _269  and  _270
REMARK  110  A    between atoms: _273  and  _275
REMARK  111  A    between atoms: _275  and  _276
REMARK  112  A    between atoms: _275  and  _278
REMARK  113  A    between atoms: _278  and  _279
REMARK  114  A    between atoms: _279  and  _280
REMARK  115  A    between atoms: _285  and  _287
REMARK  116  A    between atoms: _287  and  _288
REMARK  117  A    between atoms: _287  and  _290
REMARK  118  A    between atoms: _290  and  _291
REMARK  119  A    between atoms: _294  and  _296
REMARK  120  A    between atoms: _296  and  _297
REMARK  121  A    between atoms: _296  and  _299
REMARK  122  A    between atoms: _299  and  _300
REMARK  123  A    between atoms: _306  and  _308
REMARK  124  A    between atoms: _308  and  _309
REMARK  125  A    between atoms: _308  and  _311
REMARK  126  A    between atoms: _311  and  _312
REMARK  127  A    between atoms: _315  and  _317
REMARK  128  A    between atoms: _317  and  _318
REMARK  129  A    between atoms: _317  and  _320
REMARK  130  A    between atoms: _323  and  _325
REMARK  131  A    between atoms: _325  and  _326
REMARK  132  A    between atoms: _325  and  _328
REMARK  133  A    between atoms: _328  and  _329
REMARK  134  A    between atoms: _334  and  _336
REMARK  135  A    between atoms: _347  and  _350
REMARK  136  A    between atoms: _350  and  _351
REMARK  137  A    between atoms: _351  and  _352
REMARK  138  A    between atoms: _357  and  _360
REMARK  139  A    between atoms: _360  and  _361
REMARK  140  A    between atoms: _371  and  _372
REMARK  141  A    between atoms: _380  and  _382
REMARK  142  A    between atoms: _382  and  _383
REMARK  143  A    between atoms: _382  and  _385
REMARK  144  A    between atoms: _385  and  _386
REMARK  145  A    between atoms: _389  and  _391
REMARK  146  A    between atoms: _391  and  _392
REMARK  147  A    between atoms: _391  and  _394
REMARK  148  A    between atoms: _394  and  _395
REMARK  149  A    between atoms: _400  and  _401
REMARK  150  A    between atoms: _403  and  _405
REMARK  151  A    between atoms: _405  and  _406
REMARK  152  A    between atoms: _405  and  _408
REMARK  153  A    between atoms: _408  and  _409
REMARK  154  A    between atoms: _415  and  _417
REMARK  155  A    between atoms: _417  and  _418
REMARK  156  A    between atoms: _417  and  _420
REMARK  157  A    between atoms: _420  and  _421
REMARK  158  A    between atoms: _426  and  _427
REMARK  159  A    between atoms: _429  and  _431
REMARK  160  A    between atoms: _431  and  _432
REMARK  161  A    between atoms: _431  and  _434
REMARK  162  A    between atoms: _434  and  _435
REMARK  163  A    between atoms: _435  and  _436
REMARK  164  A    between atoms: _436  and  _437
REMARK  165  A    between atoms: _446  and  _448
REMARK  166  A    between atoms: _448  and  _449
REMARK  167  A    between atoms: _448  and  _451
REMARK  168  A    between atoms: _451  and  _452
REMARK  169  A    between atoms: _455  and  _457
REMARK  170  A    between atoms: _457  and  _458
REMARK  171  A    between atoms: _460  and  _462
REMARK  172  A    between atoms: _462  and  _463
REMARK  173  A    between atoms: _462  and  _465
REMARK  174  A    between atoms: _465  and  _466
REMARK  175  A    between atoms: _472  and  _473
REMARK  176  A    between atoms: _478  and  _480
REMARK  177  A    between atoms: _480  and  _481
REMARK  178  A    between atoms: _483  and  _485
REMARK  179  A    between atoms: _485  and  _486
REMARK  180  A    between atoms: _485  and  _488
REMARK  181  A    between atoms: _488  and  _489
REMARK  182  A    between atoms: _495  and  _497
REMARK  183  A    between atoms: _497  and  _498
REMARK  184  A    between atoms: _497  and  _500
REMARK  185  A    between atoms: _500  and  _501
REMARK  186  A    between atoms: _506  and  _508
REMARK  187  A    between atoms: _508  and  _509
REMARK  188  A    between atoms: _508  and  _511
REMARK  189  A    between atoms: _511  and  _512
REMARK  190  A    between atoms: _512  and  _513
REMARK  191  A    between atoms: _513  and  _514
REMARK  192  A    between atoms: _514  and  ZN_788
REMARK  193  A    between atoms: _516  and  _518
REMARK  194  A    between atoms: _518  and  _519
REMARK  195  A    between atoms: _522  and  _524
REMARK  196  A    between atoms: _524  and  _525
REMARK  197  A    between atoms: _527  and  _529
REMARK  198  A    between atoms: _529  and  _530
REMARK  199  A    between atoms: _529  and  _532
REMARK  200  A    between atoms: _532  and  _533
REMARK  201  A    between atoms: _536  and  _538
REMARK  202  A    between atoms: _538  and  _539
REMARK  203  A    between atoms: _538  and  _541
REMARK  204  A    between atoms: _544  and  _546
REMARK  205  A    between atoms: _546  and  _547
REMARK  206  A    between atoms: _546  and  _549
REMARK  207  A    between atoms: _549  and  _550
REMARK  208  A    between atoms: _552  and  _554
REMARK  209  A    between atoms: _554  and  _555
REMARK  210  A    between atoms: _554  and  _557
REMARK  211  A    between atoms: _557  and  _558
REMARK  212  A    between atoms: _561  and  _563
REMARK  213  A    between atoms: _563  and  _564
REMARK  214  A    between atoms: _563  and  _566
REMARK  215  A    between atoms: _566  and  _567
REMARK  216  A    between atoms: _570  and  _572
REMARK  217  A    between atoms: _572  and  _573
REMARK  218  A    between atoms: _572  and  _575
REMARK  219  A    between atoms: _575  and  _576
REMARK  220  A    between atoms: _576  and  _577
REMARK  221  A    between atoms: _577  and  _578
REMARK  222  A    between atoms: _578  and  _579
REMARK  223  A    between atoms: _583  and  _585
REMARK  224  A    between atoms: _585  and  _586
REMARK  225  A    between atoms: _585  and  _588
REMARK  226  A    between atoms: _588  and  _589
REMARK  227  A    between atoms: _595  and  _597
REMARK  228  A    between atoms: _597  and  _598
REMARK  229  A    between atoms: _597  and  _600
REMARK  230  A    between atoms: _600  and  _601
REMARK  231  A    between atoms: _607  and  _609
REMARK  232  A    between atoms: _609  and  _610
REMARK  233  A    between atoms: _613  and  _615
REMARK  234  A    between atoms: _615  and  _616
REMARK  235  A    between atoms: _615  and  _618
REMARK  236  A    between atoms: _618  and  _619
REMARK  237  A    between atoms: _619  and  _620
REMARK  238  A    between atoms: _622  and  _624
REMARK  239  A    between atoms: _624  and  _625
REMARK  240  A    between atoms: _624  and  _627
REMARK  241  A    between atoms: _627  and  _628
REMARK  242  A    between atoms: _628  and  _629
REMARK  243  A    between atoms: _629  and  _630
REMARK  244  A    between atoms: _630  and  _631
REMARK  245  A    between atoms: _635  and  _637
REMARK  246  A    between atoms: _637  and  _638
REMARK  247  A    between atoms: _637  and  _640
REMARK  248  A    between atoms: _640  and  _641
REMARK  249  A    between atoms: _646  and  _647
REMARK  250  A    between atoms: _649  and  _651
REMARK  251  A    between atoms: _651  and  _652
REMARK  252  A    between atoms: _651  and  _654
REMARK  253  A    between atoms: _654  and  _655
REMARK  254  A    between atoms: _660  and  _662
REMARK  255  A    between atoms: _662  and  _663
REMARK  256  A    between atoms: _662  and  _665
REMARK  257  A    between atoms: _665  and  _666
REMARK  258  A    between atoms: _669  and  _671
REMARK  259  A    between atoms: _671  and  _672
REMARK  260  A    between atoms: _675  and  _677
REMARK  261  A    between atoms: _677  and  _678
REMARK  262  A    between atoms: _677  and  _680
REMARK  263  A    between atoms: _680  and  _681
REMARK  264  A    between atoms: _684  and  _686
REMARK  265  A    between atoms: _686  and  _687
REMARK  266  A    between atoms: _686  and  _689
REMARK  267  A    between atoms: _692  and  _694
REMARK  268  A    between atoms: _694  and  _695
REMARK  269  A    between atoms: _694  and  _697
REMARK  270  A    between atoms: _697  and  _698
REMARK  271  A    between atoms: _698  and  _699
REMARK  272  A    between atoms: _702  and  _704
REMARK  273  A    between atoms: _704  and  _705
REMARK  274  A    between atoms: _704  and  _707
REMARK  275  A    between atoms: _707  and  _708
REMARK  276  A    between atoms: _713  and  _714
REMARK  277  A    between atoms: _716  and  _718
REMARK  278  A    between atoms: _718  and  _719
REMARK  279  A    between atoms: _718  and  _721
REMARK  280  A    between atoms: _721  and  _722
REMARK  281  A    between atoms: _722  and  _723
REMARK  282  A    between atoms: _723  and  _724
REMARK  283  A    between atoms: _733  and  _735
REMARK  284  A    between atoms: _735  and  _736
REMARK  285  A    between atoms: _735  and  _738
REMARK  286  A    between atoms: _738  and  _739
REMARK  287  A    between atoms: _744  and  _745
REMARK  288  A    between atoms: _747  and  _749
REMARK  289  A    between atoms: _749  and  _750
REMARK  290  A    between atoms: _749  and  _752
REMARK  291  A    between atoms: _752  and  _753
REMARK  292  A    between atoms: _756  and  _758
REMARK  293  A    between atoms: _758  and  _759
REMARK  294  A    between atoms: _758  and  _761
REMARK  295  A    between atoms: _761  and  _762
REMARK  296  A    between atoms: _764  and  _766
REMARK  297  A    between atoms: _766  and  _767
REMARK  298  A    between atoms: _766  and  _769
REMARK  299  A    between atoms: _769  and  _770
REMARK  300  A    between atoms: _776  and  _778
REMARK  301  A    between atoms: _778  and  _779
REMARK  302  A    between atoms: _778  and  _781
REMARK  303  A    between atoms: _781  and  _782
REMARK  304  A    between atoms: _782  and  _783
REMARK                            x       y       z     vdW  Elec       q    Type
REMARK                         _______ _______ _______ _____ _____    ______ ____
ROOT
ATOM      1  CB  GLN A   1      29.229  10.077 -54.306  0.00  0.00    +0.035 C 
ENDROOT
BRANCH   1   2
ATOM      2  CA  GLN A   1      29.403   9.995 -55.841  0.00  0.00    +0.134 C 
BRANCH   2   3
ATOM      3  N   GLN A   1      30.586   9.224 -56.226  0.00  0.00    -0.239 NA
ATOM      4  H   GLN A   1      31.235   8.874 -55.493  0.00  0.00    +0.142 HD
ENDBRANCH   2   3
BRANCH   2   5
ATOM      5  C   GLN A   1      29.423  11.402 -56.429  0.00  0.00    +0.224 C 
ATOM      6  O   GLN A   1      28.367  11.980 -56.690  0.00  0.00    -0.287 OA
ENDBRANCH   2   5
ENDBRANCH   1   2
BRANCH   1   7
ATOM      7  CG  GLN A   1      30.208  10.982 -53.565  0.00  0.00    +0.087 C 
BRANCH   7   8
ATOM      8  CD  GLN A   1      29.983  10.965 -52.045  0.00  0.00    +0.219 C 
ATOM      9  OE1 GLN A   1      29.648  11.987 -51.435  0.00  0.00    -0.275 OA
ATOM     10  NE2 GLN A   1      30.116   9.791 -51.440  0.00  0.00    -0.329 N 
ATOM     11 HE21 GLN A   1      29.937   9.709 -50.419  0.00  0.00    +0.145 HD
ATOM     12 HE22 GLN A   1      30.400   8.953 -51.987  0.00  0.00    +0.145 HD
ENDBRANCH   7   8
ENDBRANCH   1   7
TORSDOF 5
REMARK  Name = ../refined-set-2016/4ca8/4ca8_pocket.pdb
REMARK  304 active torsions:
REMARK  status: ('A' for Active; 'I' for Inactive)
REMARK    1  A    between atoms: _1  and  _3
REMARK    2  A    between atoms: _3  and  _4
REMARK    3  A    between atoms: _3  and  _6
REMARK    4  A    between atoms: _6  and  _7
REMARK    5  A    between atoms: _7  and  _8
REMARK    6  A    between atoms: _11  and  _13
REMARK    7  A    between atoms: _13  and  _14
REMARK    8  A    between atoms: _13  and  _16
REMARK    9  A    between atoms: _16  and  _17
REMARK   10  A    between atoms: _17  and  _18
REMARK   11  A    between atoms: _21  and  _23
REMARK   12  A    between atoms: _23  and  _24
REMARK   13  A    between atoms: _23  and  _26
REMARK   14  A    between atoms: _26  and  _27
REMARK   15  A    between atoms: _32  and  _34
REMARK   16  A    between atoms: _34  and  _35
REMARK   17  A    between atoms: _34  and  _37
REMARK   18  A    between atoms: _37  and  _38
REMARK   19  A    between atoms: _48  and  _50
REMARK   20  A    between atoms: _50  and  _51
REMARK   21  A    between atoms: _50  and  _53
REMARK   22  A    between atoms: _53  and  _54
REMARK   23  A    between atoms: _54  and  _55
REMARK   24  A    between atoms: _60  and  _62
REMARK   25  A    between atoms: _62  and  _63
REMARK   26  A    between atoms: _62  and  _65
REMARK   27  A    between atoms: _65  and  _66
REMARK   28  A    between atoms: _66  and  _67
REMARK   29  A    between atoms: _72  and  _74
REMARK   30  A    between atoms: _74  and  _75
REMARK   31  A    between atoms: _74  and  _77
REMARK   32  A    between atoms: _77  and  _78
REMARK   33  A    between atoms: _80  and  _82
REMARK   34  A    between atoms: _82  and  _83
REMARK   35  A    between atoms: _82  and  _85
REMARK   36  A    between atoms: _85  and  _86
REMARK   37  A    between atoms: _86  and  _87
REMARK   38  A    between atoms: _90  and  _92
REMARK   39  A    between atoms: _92  and  _93
REMARK   40  A    between atoms: _92  and  _95
REMARK   41  A    between atoms: _98  and  _100
REMARK   42  A    between atoms: _100  and  _101
REMARK   43  A    between atoms: _100  and  _103
REMARK   44  A    between atoms: _105  and  _107
REMARK   45  A    between atoms: _107  and  _108
REMARK   46  A    between atoms: _107  and  _110
REMARK   47  A    between atoms: _110  and  _111
REMARK   48  A    between atoms: _116  and  _118
REMARK   49  A    between atoms: _118  and  _119
REMARK   50  A    between atoms: _122  and  _124
REMARK   51  A    between atoms: _124  and  _125
REMARK   52  A    between atoms: _124  and  _127
REMARK   53  A    between atoms: _127  and  _128
REMARK   54  A    between atoms: _130  and  _132
REMARK   55  A    between atoms: _132  and  _133
REMARK   56  A    between atoms: _136  and  _138
REMARK   57  A    between atoms: _138  and  _139
REMARK   58  A    between atoms: _138  and  _141
REMARK   59  A    between atoms: _141  and  _142
REMARK   60  A    between atoms: _152  and  _154
REMARK   61  A    between atoms: _154  and  _155
REMARK   62  A    between atoms: _154  and  _157
REMARK   63  A    between atoms: _157  and  _158
REMARK   64  A    between atoms: _161  and  _163
REMARK   65  A    between atoms: _163  and  _164
REMARK   66  A    between atoms: _163  and  _166
REMARK   67  A    between atoms: _166  and  _167
REMARK   68  A    between atoms: _172  and  _173
REMARK   69  A    between atoms: _175  and  _177
REMARK   70  A    between atoms: _177  and  _178
REMARK   71  A    between atoms: _177  and  _180
REMARK   72  A    between atoms: _180  and  _181
REMARK   73  A    between atoms: _181  and  _182
REMARK   74  A    between atoms: _182  and  _183
REMARK   75  A    between atoms: _192  and  _194
REMARK   76  A    between atoms: _194  and  _195
REMARK   77  A    between atoms: _194  and  _197
REMARK   78  A    between atoms: _197  and  _198
REMARK   79  A    between atoms: _201  and  _203
REMARK   80  A    between atoms: _203  and  _204
REMARK   81  A    between atoms: _203  and  _206
REMARK   82  A    between atoms: _206  and  _207
REMARK   83  A    between atoms: _207  and  _208
REMARK   84  A    between atoms: _208  and  _209
REMARK   85  A    between atoms: _209  and  _210
REMARK   86  A    between atoms: _214  and  _216
REMARK   87  A    between atoms: _216  and  _217
REMARK   88  A    between atoms: _216  and  _219
REMARK   89  A    between atoms: _219  and  _220
REMARK   90  A    between atoms: _220  and  _221
REMARK   91  A    between atoms: _226  and  _228
REMARK   92  A    between atoms: _228  and  _229
REMARK   93  A    between atoms: _228  and  _231
REMARK   94  A    between atoms: _231  and  _232
REMARK   95  A    between atoms: _232  and  _233
REMARK   96  A    between atoms: _233  and  _234
REMARK   97  A    between atoms: _243  and  _245
REMARK   98  A    between atoms: _245  and  _246
REMARK   99  A    between atoms: _245  and  _248
REMARK  100  A    between atoms: _248  and  _249
REMARK  101  A    between atoms: _252  and  _254
REMARK  102  A    between atoms: _254  and  _255
REMARK  103  A    between atoms: _254  and  _257
REMARK  104  A    between atoms: _257  and  _258
REMARK  105  A    between atoms: _258  and  _259
REMARK  106  A    between atoms: _264  and  _266
REMARK  107  A    between atoms: _266  and  _267
REMARK  108  A    between atoms: _266  and  _269
REMARK  109  A    between atoms: _269  and  _270
REMARK  110  A    between atoms: _273  and  _275
REMARK  111  A    between atoms: _275  and  _276
REMARK  112  A    between atoms: _275  and  _278
REMARK  113  A    between atoms: _278  and  _279
REMARK  114  A    between atoms: _279  and  _280
REMARK  115  A    between atoms: _285  and  _287
REMARK  116  A    between atoms: _287  and  _288
REMARK  117  A    between atoms: _287  and  _290
REMARK  118  A    between atoms: _290  and  _291
REMARK  119  A    between atoms: _294  and  _296
REMARK  120  A    between atoms: _296  and  _297
REMARK  121  A    between atoms: _296  and  _299
REMARK  122  A    between atoms: _299  and  _300
REMARK  123  A    between atoms: _306  and  _308
REMARK  124  A    between atoms: _308  and  _309
REMARK  125  A    between atoms: _308  and  _311
REMARK  126  A    between atoms: _311  and  _312
REMARK  127  A    between atoms: _315  and  _317
REMARK  128  A    between atoms: _317  and  _318
REMARK  129  A    between atoms: _317  and  _320
REMARK  130  A    between atoms: _323  and  _325
REMARK  131  A    between atoms: _325  and  _326
REMARK  132  A    between atoms: _325  and  _328
REMARK  133  A    between atoms: _328  and  _329
REMARK  134  A    between atoms: _334  and  _336
REMARK  135  A    between atoms: _347  and  _350
REMARK  136  A    between atoms: _350  and  _351
REMARK  137  A    between atoms: _351  and  _352
REMARK  138  A    between atoms: _357  and  _360
REMARK  139  A    between atoms: _360  and  _361
REMARK  140  A    between atoms: _371  and  _372
REMARK  141  A    between atoms: _380  and  _382
REMARK  142  A    between atoms: _382  and  _383
REMARK  143  A    between atoms: _382  and  _385
REMARK  144  A    between atoms: _385  and  _386
REMARK  145  A    between atoms: _389  and  _391
REMARK  146  A    between atoms: _391  and  _392
REMARK  147  A    between atoms: _391  and  _394
REMARK  148  A    between atoms: _394  and  _395
REMARK  149  A    between atoms: _400  and  _401
REMARK  150  A    between atoms: _403  and  _405
REMARK  151  A    between atoms: _405  and  _406
REMARK  152  A    between atoms: _405  and  _408
REMARK  153  A    between atoms: _408  and  _409
REMARK  154  A    between atoms: _415  and  _417
REMARK  155  A    between atoms: _417  and  _418
REMARK  156  A    between atoms: _417  and  _420
REMARK  157  A    between atoms: _420  and  _421
REMARK  158  A    between atoms: _426  and  _427
REMARK  159  A    between atoms: _429  and  _431
REMARK  160  A    between atoms: _431  and  _432
REMARK  161  A    between atoms: _431  and  _434
REMARK  162  A    between atoms: _434  and  _435
REMARK  163  A    between atoms: _435  and  _436
REMARK  164  A    between atoms: _436  and  _437
REMARK  165  A    between atoms: _446  and  _448
REMARK  166  A    between atoms: _448  and  _449
REMARK  167  A    between atoms: _448  and  _451
REMARK  168  A    between atoms: _451  and  _452
REMARK  169  A    between atoms: _455  and  _457
REMARK  170  A    between atoms: _457  and  _458
REMARK  171  A    between atoms: _460  and  _462
REMARK  172  A    between atoms: _462  and  _463
REMARK  173  A    between atoms: _462  and  _465
REMARK  174  A    between atoms: _465  and  _466
REMARK  175  A    between atoms: _472  and  _473
REMARK  176  A    between atoms: _478  and  _480
REMARK  177  A    between atoms: _480  and  _481
REMARK  178  A    between atoms: _483  and  _485
REMARK  179  A    between atoms: _485  and  _486
REMARK  180  A    between atoms: _485  and  _488
REMARK  181  A    between atoms: _488  and  _489
REMARK  182  A    between atoms: _495  and  _497
REMARK  183  A    between atoms: _497  and  _498
REMARK  184  A    between atoms: _497  and  _500
REMARK  185  A    between atoms: _500  and  _501
REMARK  186  A    between atoms: _506  and  _508
REMARK  187  A    between atoms: _508  and  _509
REMARK  188  A    between atoms: _508  and  _511
REMARK  189  A    between atoms: _511  and  _512
REMARK  190  A    between atoms: _512  and  _513
REMARK  191  A    between atoms: _513  and  _514
REMARK  192  A    between atoms: _514  and  ZN_788
REMARK  193  A    between atoms: _516  and  _518
REMARK  194  A    between atoms: _518  and  _519
REMARK  195  A    between atoms: _522  and  _524
REMARK  196  A    between atoms: _524  and  _525
REMARK  197  A    between atoms: _527  and  _529
REMARK  198  A    between atoms: _529  and  _530
REMARK  199  A    between atoms: _529  and  _532
REMARK  200  A    between atoms: _532  and  _533
REMARK  201  A    between atoms: _536  and  _538
REMARK  202  A    between atoms: _538  and  _539
REMARK  203  A    between atoms: _538  and  _541
REMARK  204  A    between atoms: _544  and  _546
REMARK  205  A    between atoms: _546  and  _547
REMARK  206  A    between atoms: _546  and  _549
REMARK  207  A    between atoms: _549  and  _550
REMARK  208  A    between atoms: _552  and  _554
REMARK  209  A    between atoms: _554  and  _555
REMARK  210  A    between atoms: _554  and  _557
REMARK  211  A    between atoms: _557  and  _558
REMARK  212  A    between atoms: _561  and  _563
REMARK  213  A    between atoms: _563  and  _564
REMARK  214  A    between atoms: _563  and  _566
REMARK  215  A    between atoms: _566  and  _567
REMARK  216  A    between atoms: _570  and  _572
REMARK  217  A    between atoms: _572  and  _573
REMARK  218  A    between atoms: _572  and  _575
REMARK  219  A    between atoms: _575  and  _576
REMARK  220  A    between atoms: _576  and  _577
REMARK  221  A    between atoms: _577  and  _578
REMARK  222  A    between atoms: _578  and  _579
REMARK  223  A    between atoms: _583  and  _585
REMARK  224  A    between atoms: _585  and  _586
REMARK  225  A    between atoms: _585  and  _588
REMARK  226  A    between atoms: _588  and  _589
REMARK  227  A    between atoms: _595  and  _597
REMARK  228  A    between atoms: _597  and  _598
REMARK  229  A    between atoms: _597  and  _600
REMARK  230  A    between atoms: _600  and  _601
REMARK  231  A    between atoms: _607  and  _609
REMARK  232  A    between atoms: _609  and  _610
REMARK  233  A    between atoms: _613  and  _615
REMARK  234  A    between atoms: _615  and  _616
REMARK  235  A    between atoms: _615  and  _618
REMARK  236  A    between atoms: _618  and  _619
REMARK  237  A    between atoms: _619  and  _620
REMARK  238  A    between atoms: _622  and  _624
REMARK  239  A    between atoms: _624  and  _625
REMARK  240  A    between atoms: _624  and  _627
REMARK  241  A    between atoms: _627  and  _628
REMARK  242  A    between atoms: _628  and  _629
REMARK  243  A    between atoms: _629  and  _630
REMARK  244  A    between atoms: _630  and  _631
REMARK  245  A    between atoms: _635  and  _637
REMARK  246  A    between atoms: _637  and  _638
REMARK  247  A    between atoms: _637  and  _640
REMARK  248  A    between atoms: _640  and  _641
REMARK  249  A    between atoms: _646  and  _647
REMARK  250  A    between atoms: _649  and  _651
REMARK  251  A    between atoms: _651  and  _652
REMARK  252  A    between atoms: _651  and  _654
REMARK  253  A    between atoms: _654  and  _655
REMARK  254  A    between atoms: _660  and  _662
REMARK  255  A    between atoms: _662  and  _663
REMARK  256  A    between atoms: _662  and  _665
REMARK  257  A    between atoms: _665  and  _666
REMARK  258  A    between atoms: _669  and  _671
REMARK  259  A    between atoms: _671  and  _672
REMARK  260  A    between atoms: _675  and  _677
REMARK  261  A    between atoms: _677  and  _678
REMARK  262  A    between atoms: _677  and  _680
REMARK  263  A    between atoms: _680  and  _681
REMARK  264  A    between atoms: _684  and  _686
REMARK  265  A    between atoms: _686  and  _687
REMARK  266  A    between atoms: _686  and  _689
REMARK  267  A    between atoms: _692  and  _694
REMARK  268  A    between atoms: _694  and  _695
REMARK  269  A    between atoms: _694  and  _697
REMARK  270  A    between atoms: _697  and  _698
REMARK  271  A    between atoms: _698  and  _699
REMARK  272  A    between atoms: _702  and  _704
REMARK  273  A    between atoms: _704  and  _705
REMARK  274  A    between atoms: _704  and  _707
REMARK  275  A    between atoms: _707  and  _708
REMARK  276  A    between atoms: _713  and  _714
REMARK  277  A    between atoms: _716  and  _718
REMARK  278  A    between atoms: _718  and  _719
REMARK  279  A    between atoms: _718  and  _721
REMARK  280  A    between atoms: _721  and  _722
REMARK  281  A    between atoms: _722  and  _723
REMARK  282  A    between atoms: _723  and  _724
REMARK  283  A    between atoms: _733  and  _735
REMARK  284  A    between atoms: _735  and  _736
REMARK  285  A    between atoms: _735  and  _738
REMARK  286  A    between atoms: _738  and  _739
REMARK  287  A    between atoms: _744  and  _745
REMARK  288  A    between atoms: _747  and  _749
REMARK  289  A    between atoms: _749  and  _750
REMARK  290  A    between atoms: _749  and  _752
REMARK  291  A    between atoms: _752  and  _753
REMARK  292  A    between atoms: _756  and  _758
REMARK  293  A    between atoms: _758  and  _759
REMARK  294  A    between atoms: _758  and  _761
REMARK  295  A    between atoms: _761  and  _762
REMARK  296  A    between atoms: _764  and  _766
REMARK  297  A    between atoms: _766  and  _767
REMARK  298  A    between atoms: _766  and  _769
REMARK  299  A    between atoms: _769  and  _770
REMARK  300  A    between atoms: _776  and  _778
REMARK  301  A    between atoms: _778  and  _779
REMARK  302  A    between atoms: _778  and  _781
REMARK  303  A    between atoms: _781  and  _782
REMARK  304  A    between atoms: _782  and  _783
REMARK                            x       y       z     vdW  Elec       q    Type
REMARK                         _______ _______ _______ _____ _____    ______ ____
ROOT
ATOM      1  O   HOH     1      24.291  -9.644 -36.786  0.00  0.00    +0.000 OA
ENDROOT
TORSDOF 0
REMARK  Name = ../refined-set-2016/4ca8/4ca8_pocket.pdb
REMARK  304 active torsions:
REMARK  status: ('A' for Active; 'I' for Inactive)
REMARK    1  A    between atoms: _1  and  _3
REMARK    2  A    between atoms: _3  and  _4
REMARK    3  A    between atoms: _3  and  _6
REMARK    4  A    between atoms: _6  and  _7
REMARK    5  A    between atoms: _7  and  _8
REMARK    6  A    between atoms: _11  and  _13
REMARK    7  A    between atoms: _13  and  _14
REMARK    8  A    between atoms: _13  and  _16
REMARK    9  A    between atoms: _16  and  _17
REMARK   10  A    between atoms: _17  and  _18
REMARK   11  A    between atoms: _21  and  _23
REMARK   12  A    between atoms: _23  and  _24
REMARK   13  A    between atoms: _23  and  _26
REMARK   14  A    between atoms: _26  and  _27
REMARK   15  A    between atoms: _32  and  _34
REMARK   16  A    between atoms: _34  and  _35
REMARK   17  A    between atoms: _34  and  _37
REMARK   18  A    between atoms: _37  and  _38
REMARK   19  A    between atoms: _48  and  _50
REMARK   20  A    between atoms: _50  and  _51
REMARK   21  A    between atoms: _50  and  _53
REMARK   22  A    between atoms: _53  and  _54
REMARK   23  A    between atoms: _54  and  _55
REMARK   24  A    between atoms: _60  and  _62
REMARK   25  A    between atoms: _62  and  _63
REMARK   26  A    between atoms: _62  and  _65
REMARK   27  A    between atoms: _65  and  _66
REMARK   28  A    between atoms: _66  and  _67
REMARK   29  A    between atoms: _72  and  _74
REMARK   30  A    between atoms: _74  and  _75
REMARK   31  A    between atoms: _74  and  _77
REMARK   32  A    between atoms: _77  and  _78
REMARK   33  A    between atoms: _80  and  _82
REMARK   34  A    between atoms: _82  and  _83
REMARK   35  A    between atoms: _82  and  _85
REMARK   36  A    between atoms: _85  and  _86
REMARK   37  A    between atoms: _86  and  _87
REMARK   38  A    between atoms: _90  and  _92
REMARK   39  A    between atoms: _92  and  _93
REMARK   40  A    between atoms: _92  and  _95
REMARK   41  A    between atoms: _98  and  _100
REMARK   42  A    between atoms: _100  and  _101
REMARK   43  A    between atoms: _100  and  _103
REMARK   44  A    between atoms: _105  and  _107
REMARK   45  A    between atoms: _107  and  _108
REMARK   46  A    between atoms: _107  and  _110
REMARK   47  A    between atoms: _110  and  _111
REMARK   48  A    between atoms: _116  and  _118
REMARK   49  A    between atoms: _118  and  _119
REMARK   50  A    between atoms: _122  and  _124
REMARK   51  A    between atoms: _124  and  _125
REMARK   52  A    between atoms: _124  and  _127
REMARK   53  A    between atoms: _127  and  _128
REMARK   54  A    between atoms: _130  and  _132
REMARK   55  A    between atoms: _132  and  _133
REMARK   56  A    between atoms: _136  and  _138
REMARK   57  A    between atoms: _138  and  _139
REMARK   58  A    between atoms: _138  and  _141
REMARK   59  A    between atoms: _141  and  _142
REMARK   60  A    between atoms: _152  and  _154
REMARK   61  A    between atoms: _154  and  _155
REMARK   62  A    between atoms: _154  and  _157
REMARK   63  A    between atoms: _157  and  _158
REMARK   64  A    between atoms: _161  and  _163
REMARK   65  A    between atoms: _163  and  _164
REMARK   66  A    between atoms: _163  and  _166
REMARK   67  A    between atoms: _166  and  _167
REMARK   68  A    between atoms: _172  and  _173
REMARK   69  A    between atoms: _175  and  _177
REMARK   70  A    between atoms: _177  and  _178
REMARK   71  A    between atoms: _177  and  _180
REMARK   72  A    between atoms: _180  and  _181
REMARK   73  A    between atoms: _181  and  _182
REMARK   74  A    between atoms: _182  and  _183
REMARK   75  A    between atoms: _192  and  _194
REMARK   76  A    between atoms: _194  and  _195
REMARK   77  A    between atoms: _194  and  _197
REMARK   78  A    between atoms: _197  and  _198
REMARK   79  A    between atoms: _201  and  _203
REMARK   80  A    between atoms: _203  and  _204
REMARK   81  A    between atoms: _203  and  _206
REMARK   82  A    between atoms: _206  and  _207
REMARK   83  A    between atoms: _207  and  _208
REMARK   84  A    between atoms: _208  and  _209
REMARK   85  A    between atoms: _209  and  _210
REMARK   86  A    between atoms: _214  and  _216
REMARK   87  A    between atoms: _216  and  _217
REMARK   88  A    between atoms: _216  and  _219
REMARK   89  A    between atoms: _219  and  _220
REMARK   90  A    between atoms: _220  and  _221
REMARK   91  A    between atoms: _226  and  _228
REMARK   92  A    between atoms: _228  and  _229
REMARK   93  A    between atoms: _228  and  _231
REMARK   94  A    between atoms: _231  and  _232
REMARK   95  A    between atoms: _232  and  _233
REMARK   96  A    between atoms: _233  and  _234
REMARK   97  A    between atoms: _243  and  _245
REMARK   98  A    between atoms: _245  and  _246
REMARK   99  A    between atoms: _245  and  _248
REMARK  100  A    between atoms: _248  and  _249
REMARK  101  A    between atoms: _252  and  _254
REMARK  102  A    between atoms: _254  and  _255
REMARK  103  A    between atoms: _254  and  _257
REMARK  104  A    between atoms: _257  and  _258
REMARK  105  A    between atoms: _258  and  _259
REMARK  106  A    between atoms: _264  and  _266
REMARK  107  A    between atoms: _266  and  _267
REMARK  108  A    between atoms: _266  and  _269
REMARK  109  A    between atoms: _269  and  _270
REMARK  110  A    between atoms: _273  and  _275
REMARK  111  A    between atoms: _275  and  _276
REMARK  112  A    between atoms: _275  and  _278
REMARK  113  A    between atoms: _278  and  _279
REMARK  114  A    between atoms: _279  and  _280
REMARK  115  A    between atoms: _285  and  _287
REMARK  116  A    between atoms: _287  and  _288
REMARK  117  A    between atoms: _287  and  _290
REMARK  118  A    between atoms: _290  and  _291
REMARK  119  A    between atoms: _294  and  _296
REMARK  120  A    between atoms: _296  and  _297
REMARK  121  A    between atoms: _296  and  _299
REMARK  122  A    between atoms: _299  and  _300
REMARK  123  A    between atoms: _306  and  _308
REMARK  124  A    between atoms: _308  and  _309
REMARK  125  A    between atoms: _308  and  _311
REMARK  126  A    between atoms: _311  and  _312
REMARK  127  A    between atoms: _315  and  _317
REMARK  128  A    between atoms: _317  and  _318
REMARK  129  A    between atoms: _317  and  _320
REMARK  130  A    between atoms: _323  and  _325
REMARK  131  A    between atoms: _325  and  _326
REMARK  132  A    between atoms: _325  and  _328
REMARK  133  A    between atoms: _328  and  _329
REMARK  134  A    between atoms: _334  and  _336
REMARK  135  A    between atoms: _347  and  _350
REMARK  136  A    between atoms: _350  and  _351
REMARK  137  A    between atoms: _351  and  _352
REMARK  138  A    between atoms: _357  and  _360
REMARK  139  A    between atoms: _360  and  _361
REMARK  140  A    between atoms: _371  and  _372
REMARK  141  A    between atoms: _380  and  _382
REMARK  142  A    between atoms: _382  and  _383
REMARK  143  A    between atoms: _382  and  _385
REMARK  144  A    between atoms: _385  and  _386
REMARK  145  A    between atoms: _389  and  _391
REMARK  146  A    between atoms: _391  and  _392
REMARK  147  A    between atoms: _391  and  _394
REMARK  148  A    between atoms: _394  and  _395
REMARK  149  A    between atoms: _400  and  _401
REMARK  150  A    between atoms: _403  and  _405
REMARK  151  A    between atoms: _405  and  _406
REMARK  152  A    between atoms: _405  and  _408
REMARK  153  A    between atoms: _408  and  _409
REMARK  154  A    between atoms: _415  and  _417
REMARK  155  A    between atoms: _417  and  _418
REMARK  156  A    between atoms: _417  and  _420
REMARK  157  A    between atoms: _420  and  _421
REMARK  158  A    between atoms: _426  and  _427
REMARK  159  A    between atoms: _429  and  _431
REMARK  160  A    between atoms: _431  and  _432
REMARK  161  A    between atoms: _431  and  _434
REMARK  162  A    between atoms: _434  and  _435
REMARK  163  A    between atoms: _435  and  _436
REMARK  164  A    between atoms: _436  and  _437
REMARK  165  A    between atoms: _446  and  _448
REMARK  166  A    between atoms: _448  and  _449
REMARK  167  A    between atoms: _448  and  _451
REMARK  168  A    between atoms: _451  and  _452
REMARK  169  A    between atoms: _455  and  _457
REMARK  170  A    between atoms: _457  and  _458
REMARK  171  A    between atoms: _460  and  _462
REMARK  172  A    between atoms: _462  and  _463
REMARK  173  A    between atoms: _462  and  _465
REMARK  174  A    between atoms: _465  and  _466
REMARK  175  A    between atoms: _472  and  _473
REMARK  176  A    between atoms: _478  and  _480
REMARK  177  A    between atoms: _480  and  _481
REMARK  178  A    between atoms: _483  and  _485
REMARK  179  A    between atoms: _485  and  _486
REMARK  180  A    between atoms: _485  and  _488
REMARK  181  A    between atoms: _488  and  _489
REMARK  182  A    between atoms: _495  and  _497
REMARK  183  A    between atoms: _497  and  _498
REMARK  184  A    between atoms: _497  and  _500
REMARK  185  A    between atoms: _500  and  _501
REMARK  186  A    between atoms: _506  and  _508
REMARK  187  A    between atoms: _508  and  _509
REMARK  188  A    between atoms: _508  and  _511
REMARK  189  A    between atoms: _511  and  _512
REMARK  190  A    between atoms: _512  and  _513
REMARK  191  A    between atoms: _513  and  _514
REMARK  192  A    between atoms: _514  and  ZN_788
REMARK  193  A    between atoms: _516  and  _518
REMARK  194  A    between atoms: _518  and  _519
REMARK  195  A    between atoms: _522  and  _524
REMARK  196  A    between atoms: _524  and  _525
REMARK  197  A    between atoms: _527  and  _529
REMARK  198  A    between atoms: _529  and  _530
REMARK  199  A    between atoms: _529  and  _532
REMARK  200  A    between atoms: _532  and  _533
REMARK  201  A    between atoms: _536  and  _538
REMARK  202  A    between atoms: _538  and  _539
REMARK  203  A    between atoms: _538  and  _541
REMARK  204  A    between atoms: _544  and  _546
REMARK  205  A    between atoms: _546  and  _547
REMARK  206  A    between atoms: _546  and  _549
REMARK  207  A    between atoms: _549  and  _550
REMARK  208  A    between atoms: _552  and  _554
REMARK  209  A    between atoms: _554  and  _555
REMARK  210  A    between atoms: _554  and  _557
REMARK  211  A    between atoms: _557  and  _558
REMARK  212  A    between atoms: _561  and  _563
REMARK  213  A    between atoms: _563  and  _564
REMARK  214  A    between atoms: _563  and  _566
REMARK  215  A    between atoms: _566  and  _567
REMARK  216  A    between atoms: _570  and  _572
REMARK  217  A    between atoms: _572  and  _573
REMARK  218  A    between atoms: _572  and  _575
REMARK  219  A    between atoms: _575  and  _576
REMARK  220  A    between atoms: _576  and  _577
REMARK  221  A    between atoms: _577  and  _578
REMARK  222  A    between atoms: _578  and  _579
REMARK  223  A    between atoms: _583  and  _585
REMARK  224  A    between atoms: _585  and  _586
REMARK  225  A    between atoms: _585  and  _588
REMARK  226  A    between atoms: _588  and  _589
REMARK  227  A    between atoms: _595  and  _597
REMARK  228  A    between atoms: _597  and  _598
REMARK  229  A    between atoms: _597  and  _600
REMARK  230  A    between atoms: _600  and  _601
REMARK  231  A    between atoms: _607  and  _609
REMARK  232  A    between atoms: _609  and  _610
REMARK  233  A    between atoms: _613  and  _615
REMARK  234  A    between atoms: _615  and  _616
REMARK  235  A    between atoms: _615  and  _618
REMARK  236  A    between atoms: _618  and  _619
REMARK  237  A    between atoms: _619  and  _620
REMARK  238  A    between atoms: _622  and  _624
REMARK  239  A    between atoms: _624  and  _625
REMARK  240  A    between atoms: _624  and  _627
REMARK  241  A    between atoms: _627  and  _628
REMARK  242  A    between atoms: _628  and  _629
REMARK  243  A    between atoms: _629  and  _630
REMARK  244  A    between atoms: _630  and  _631
REMARK  245  A    between atoms: _635  and  _637
REMARK  246  A    between atoms: _637  and  _638
REMARK  247  A    between atoms: _637  and  _640
REMARK  248  A    between atoms: _640  and  _641
REMARK  249  A    between atoms: _646  and  _647
REMARK  250  A    between atoms: _649  and  _651
REMARK  251  A    between atoms: _651  and  _652
REMARK  252  A    between atoms: _651  and  _654
REMARK  253  A    between atoms: _654  and  _655
REMARK  254  A    between atoms: _660  and  _662
REMARK  255  A    between atoms: _662  and  _663
REMARK  256  A    between atoms: _662  and  _665
REMARK  257  A    between atoms: _665  and  _666
REMARK  258  A    between atoms: _669  and  _671
REMARK  259  A    between atoms: _671  and  _672
REMARK  260  A    between atoms: _675  and  _677
REMARK  261  A    between atoms: _677  and  _678
REMARK  262  A    between atoms: _677  and  _680
REMARK  263  A    between atoms: _680  and  _681
REMARK  264  A    between atoms: _684  and  _686
REMARK  265  A    between atoms: _686  and  _687
REMARK  266  A    between atoms: _686  and  _689
REMARK  267  A    between atoms: _692  and  _694
REMARK  268  A    between atoms: _694  and  _695
REMARK  269  A    between atoms: _694  and  _697
REMARK  270  A    between atoms: _697  and  _698
REMARK  271  A    between atoms: _698  and  _699
REMARK  272  A    between atoms: _702  and  _704
REMARK  273  A    between atoms: _704  and  _705
REMARK  274  A    between atoms: _704  and  _707
REMARK  275  A    between atoms: _707  and  _708
REMARK  276  A    between atoms: _713  and  _714
REMARK  277  A    between atoms: _716  and  _718
REMARK  278  A    between atoms: _718  and  _719
REMARK  279  A    between atoms: _718  and  _721
REMARK  280  A    between atoms: _721  and  _722
REMARK  281  A    between atoms: _722  and  _723
REMARK  282  A    between atoms: _723  and  _724
REMARK  283  A    between atoms: _733  and  _735
REMARK  284  A    between atoms: _735  and  _736
REMARK  285  A    between atoms: _735  and  _738
REMARK  286  A    between atoms: _738  and  _739
REMARK  287  A    between atoms: _744  and  _745
REMARK  288  A    between atoms: _747  and  _749
REMARK  289  A    between atoms: _749  and  _750
REMARK  290  A    between atoms: _749  and  _752
REMARK  291  A    between atoms: _752  and  _753
REMARK  292  A    between atoms: _756  and  _758
REMARK  293  A    between atoms: _758  and  _759
REMARK  294  A    between atoms: _758  and  _761
REMARK  295  A    between atoms: _761  and  _762
REMARK  296  A    between atoms: _764  and  _766
REMARK  297  A    between atoms: _766  and  _767
REMARK  298  A    between atoms: _766  and  _769
REMARK  299  A    between atoms: _769  and  _770
REMARK  300  A    between atoms: _776  and  _778
REMARK  301  A    between atoms: _778  and  _779
REMARK  302  A    between atoms: _778  and  _781
REMARK  303  A    between atoms: _781  and  _782
REMARK  304  A    between atoms: _782  and  _783
REMARK                            x       y       z     vdW  Elec       q    Type
REMARK                         _______ _______ _______ _____ _____    ______ ____
ROOT
ATOM      1  O   HOH     1      25.728  -7.255 -39.643  0.00  0.00    +0.000 OA
ENDROOT
TORSDOF 0
REMARK  Name = ../refined-set-2016/4ca8/4ca8_pocket.pdb
REMARK  304 active torsions:
REMARK  status: ('A' for Active; 'I' for Inactive)
REMARK    1  A    between atoms: _1  and  _3
REMARK    2  A    between atoms: _3  and  _4
REMARK    3  A    between atoms: _3  and  _6
REMARK    4  A    between atoms: _6  and  _7
REMARK    5  A    between atoms: _7  and  _8
REMARK    6  A    between atoms: _11  and  _13
REMARK    7  A    between atoms: _13  and  _14
REMARK    8  A    between atoms: _13  and  _16
REMARK    9  A    between atoms: _16  and  _17
REMARK   10  A    between atoms: _17  and  _18
REMARK   11  A    between atoms: _21  and  _23
REMARK   12  A    between atoms: _23  and  _24
REMARK   13  A    between atoms: _23  and  _26
REMARK   14  A    between atoms: _26  and  _27
REMARK   15  A    between atoms: _32  and  _34
REMARK   16  A    between atoms: _34  and  _35
REMARK   17  A    between atoms: _34  and  _37
REMARK   18  A    between atoms: _37  and  _38
REMARK   19  A    between atoms: _48  and  _50
REMARK   20  A    between atoms: _50  and  _51
REMARK   21  A    between atoms: _50  and  _53
REMARK   22  A    between atoms: _53  and  _54
REMARK   23  A    between atoms: _54  and  _55
REMARK   24  A    between atoms: _60  and  _62
REMARK   25  A    between atoms: _62  and  _63
REMARK   26  A    between atoms: _62  and  _65
REMARK   27  A    between atoms: _65  and  _66
REMARK   28  A    between atoms: _66  and  _67
REMARK   29  A    between atoms: _72  and  _74
REMARK   30  A    between atoms: _74  and  _75
REMARK   31  A    between atoms: _74  and  _77
REMARK   32  A    between atoms: _77  and  _78
REMARK   33  A    between atoms: _80  and  _82
REMARK   34  A    between atoms: _82  and  _83
REMARK   35  A    between atoms: _82  and  _85
REMARK   36  A    between atoms: _85  and  _86
REMARK   37  A    between atoms: _86  and  _87
REMARK   38  A    between atoms: _90  and  _92
REMARK   39  A    between atoms: _92  and  _93
REMARK   40  A    between atoms: _92  and  _95
REMARK   41  A    between atoms: _98  and  _100
REMARK   42  A    between atoms: _100  and  _101
REMARK   43  A    between atoms: _100  and  _103
REMARK   44  A    between atoms: _105  and  _107
REMARK   45  A    between atoms: _107  and  _108
REMARK   46  A    between atoms: _107  and  _110
REMARK   47  A    between atoms: _110  and  _111
REMARK   48  A    between atoms: _116  and  _118
REMARK   49  A    between atoms: _118  and  _119
REMARK   50  A    between atoms: _122  and  _124
REMARK   51  A    between atoms: _124  and  _125
REMARK   52  A    between atoms: _124  and  _127
REMARK   53  A    between atoms: _127  and  _128
REMARK   54  A    between atoms: _130  and  _132
REMARK   55  A    between atoms: _132  and  _133
REMARK   56  A    between atoms: _136  and  _138
REMARK   57  A    between atoms: _138  and  _139
REMARK   58  A    between atoms: _138  and  _141
REMARK   59  A    between atoms: _141  and  _142
REMARK   60  A    between atoms: _152  and  _154
REMARK   61  A    between atoms: _154  and  _155
REMARK   62  A    between atoms: _154  and  _157
REMARK   63  A    between atoms: _157  and  _158
REMARK   64  A    between atoms: _161  and  _163
REMARK   65  A    between atoms: _163  and  _164
REMARK   66  A    between atoms: _163  and  _166
REMARK   67  A    between atoms: _166  and  _167
REMARK   68  A    between atoms: _172  and  _173
REMARK   69  A    between atoms: _175  and  _177
REMARK   70  A    between atoms: _177  and  _178
REMARK   71  A    between atoms: _177  and  _180
REMARK   72  A    between atoms: _180  and  _181
REMARK   73  A    between atoms: _181  and  _182
REMARK   74  A    between atoms: _182  and  _183
REMARK   75  A    between atoms: _192  and  _194
REMARK   76  A    between atoms: _194  and  _195
REMARK   77  A    between atoms: _194  and  _197
REMARK   78  A    between atoms: _197  and  _198
REMARK   79  A    between atoms: _201  and  _203
REMARK   80  A    between atoms: _203  and  _204
REMARK   81  A    between atoms: _203  and  _206
REMARK   82  A    between atoms: _206  and  _207
REMARK   83  A    between atoms: _207  and  _208
REMARK   84  A    between atoms: _208  and  _209
REMARK   85  A    between atoms: _209  and  _210
REMARK   86  A    between atoms: _214  and  _216
REMARK   87  A    between atoms: _216  and  _217
REMARK   88  A    between atoms: _216  and  _219
REMARK   89  A    between atoms: _219  and  _220
REMARK   90  A    between atoms: _220  and  _221
REMARK   91  A    between atoms: _226  and  _228
REMARK   92  A    between atoms: _228  and  _229
REMARK   93  A    between atoms: _228  and  _231
REMARK   94  A    between atoms: _231  and  _232
REMARK   95  A    between atoms: _232  and  _233
REMARK   96  A    between atoms: _233  and  _234
REMARK   97  A    between atoms: _243  and  _245
REMARK   98  A    between atoms: _245  and  _246
REMARK   99  A    between atoms: _245  and  _248
REMARK  100  A    between atoms: _248  and  _249
REMARK  101  A    between atoms: _252  and  _254
REMARK  102  A    between atoms: _254  and  _255
REMARK  103  A    between atoms: _254  and  _257
REMARK  104  A    between atoms: _257  and  _258
REMARK  105  A    between atoms: _258  and  _259
REMARK  106  A    between atoms: _264  and  _266
REMARK  107  A    between atoms: _266  and  _267
REMARK  108  A    between atoms: _266  and  _269
REMARK  109  A    between atoms: _269  and  _270
REMARK  110  A    between atoms: _273  and  _275
REMARK  111  A    between atoms: _275  and  _276
REMARK  112  A    between atoms: _275  and  _278
REMARK  113  A    between atoms: _278  and  _279
REMARK  114  A    between atoms: _279  and  _280
REMARK  115  A    between atoms: _285  and  _287
REMARK  116  A    between atoms: _287  and  _288
REMARK  117  A    between atoms: _287  and  _290
REMARK  118  A    between atoms: _290  and  _291
REMARK  119  A    between atoms: _294  and  _296
REMARK  120  A    between atoms: _296  and  _297
REMARK  121  A    between atoms: _296  and  _299
REMARK  122  A    between atoms: _299  and  _300
REMARK  123  A    between atoms: _306  and  _308
REMARK  124  A    between atoms: _308  and  _309
REMARK  125  A    between atoms: _308  and  _311
REMARK  126  A    between atoms: _311  and  _312
REMARK  127  A    between atoms: _315  and  _317
REMARK  128  A    between atoms: _317  and  _318
REMARK  129  A    between atoms: _317  and  _320
REMARK  130  A    between atoms: _323  and  _325
REMARK  131  A    between atoms: _325  and  _326
REMARK  132  A    between atoms: _325  and  _328
REMARK  133  A    between atoms: _328  and  _329
REMARK  134  A    between atoms: _334  and  _336
REMARK  135  A    between atoms: _347  and  _350
REMARK  136  A    between atoms: _350  and  _351
REMARK  137  A    between atoms: _351  and  _352
REMARK  138  A    between atoms: _357  and  _360
REMARK  139  A    between atoms: _360  and  _361
REMARK  140  A    between atoms: _371  and  _372
REMARK  141  A    between atoms: _380  and  _382
REMARK  142  A    between atoms: _382  and  _383
REMARK  143  A    between atoms: _382  and  _385
REMARK  144  A    between atoms: _385  and  _386
REMARK  145  A    between atoms: _389  and  _391
REMARK  146  A    between atoms: _391  and  _392
REMARK  147  A    between atoms: _391  and  _394
REMARK  148  A    between atoms: _394  and  _395
REMARK  149  A    between atoms: _400  and  _401
REMARK  150  A    between atoms: _403  and  _405
REMARK  151  A    between atoms: _405  and  _406
REMARK  152  A    between atoms: _405  and  _408
REMARK  153  A    between atoms: _408  and  _409
REMARK  154  A    between atoms: _415  and  _417
REMARK  155  A    between atoms: _417  and  _418
REMARK  156  A    between atoms: _417  and  _420
REMARK  157  A    between atoms: _420  and  _421
REMARK  158  A    between atoms: _426  and  _427
REMARK  159  A    between atoms: _429  and  _431
REMARK  160  A    between atoms: _431  and  _432
REMARK  161  A    between atoms: _431  and  _434
REMARK  162  A    between atoms: _434  and  _435
REMARK  163  A    between atoms: _435  and  _436
REMARK  164  A    between atoms: _436  and  _437
REMARK  165  A    between atoms: _446  and  _448
REMARK  166  A    between atoms: _448  and  _449
REMARK  167  A    between atoms: _448  and  _451
REMARK  168  A    between atoms: _451  and  _452
REMARK  169  A    between atoms: _455  and  _457
REMARK  170  A    between atoms: _457  and  _458
REMARK  171  A    between atoms: _460  and  _462
REMARK  172  A    between atoms: _462  and  _463
REMARK  173  A    between atoms: _462  and  _465
REMARK  174  A    between atoms: _465  and  _466
REMARK  175  A    between atoms: _472  and  _473
REMARK  176  A    between atoms: _478  and  _480
REMARK  177  A    between atoms: _480  and  _481
REMARK  178  A    between atoms: _483  and  _485
REMARK  179  A    between atoms: _485  and  _486
REMARK  180  A    between atoms: _485  and  _488
REMARK  181  A    between atoms: _488  and  _489
REMARK  182  A    between atoms: _495  and  _497
REMARK  183  A    between atoms: _497  and  _498
REMARK  184  A    between atoms: _497  and  _500
REMARK  185  A    between atoms: _500  and  _501
REMARK  186  A    between atoms: _506  and  _508
REMARK  187  A    between atoms: _508  and  _509
REMARK  188  A    between atoms: _508  and  _511
REMARK  189  A    between atoms: _511  and  _512
REMARK  190  A    between atoms: _512  and  _513
REMARK  191  A    between atoms: _513  and  _514
REMARK  192  A    between atoms: _514  and  ZN_788
REMARK  193  A    between atoms: _516  and  _518
REMARK  194  A    between atoms: _518  and  _519
REMARK  195  A    between atoms: _522  and  _524
REMARK  196  A    between atoms: _524  and  _525
REMARK  197  A    between atoms: _527  and  _529
REMARK  198  A    between atoms: _529  and  _530
REMARK  199  A    between atoms: _529  and  _532
REMARK  200  A    between atoms: _532  and  _533
REMARK  201  A    between atoms: _536  and  _538
REMARK  202  A    between atoms: _538  and  _539
REMARK  203  A    between atoms: _538  and  _541
REMARK  204  A    between atoms: _544  and  _546
REMARK  205  A    between atoms: _546  and  _547
REMARK  206  A    between atoms: _546  and  _549
REMARK  207  A    between atoms: _549  and  _550
REMARK  208  A    between atoms: _552  and  _554
REMARK  209  A    between atoms: _554  and  _555
REMARK  210  A    between atoms: _554  and  _557
REMARK  211  A    between atoms: _557  and  _558
REMARK  212  A    between atoms: _561  and  _563
REMARK  213  A    between atoms: _563  and  _564
REMARK  214  A    between atoms: _563  and  _566
REMARK  215  A    between atoms: _566  and  _567
REMARK  216  A    between atoms: _570  and  _572
REMARK  217  A    between atoms: _572  and  _573
REMARK  218  A    between atoms: _572  and  _575
REMARK  219  A    between atoms: _575  and  _576
REMARK  220  A    between atoms: _576  and  _577
REMARK  221  A    between atoms: _577  and  _578
REMARK  222  A    between atoms: _578  and  _579
REMARK  223  A    between atoms: _583  and  _585
REMARK  224  A    between atoms: _585  and  _586
REMARK  225  A    between atoms: _585  and  _588
REMARK  226  A    between atoms: _588  and  _589
REMARK  227  A    between atoms: _595  and  _597
REMARK  228  A    between atoms: _597  and  _598
REMARK  229  A    between atoms: _597  and  _600
REMARK  230  A    between atoms: _600  and  _601
REMARK  231  A    between atoms: _607  and  _609
REMARK  232  A    between atoms: _609  and  _610
REMARK  233  A    between atoms: _613  and  _615
REMARK  234  A    between atoms: _615  and  _616
REMARK  235  A    between atoms: _615  and  _618
REMARK  236  A    between atoms: _618  and  _619
REMARK  237  A    between atoms: _619  and  _620
REMARK  238  A    between atoms: _622  and  _624
REMARK  239  A    between atoms: _624  and  _625
REMARK  240  A    between atoms: _624  and  _627
REMARK  241  A    between atoms: _627  and  _628
REMARK  242  A    between atoms: _628  and  _629
REMARK  243  A    between atoms: _629  and  _630
REMARK  244  A    between atoms: _630  and  _631
REMARK  245  A    between atoms: _635  and  _637
REMARK  246  A    between atoms: _637  and  _638
REMARK  247  A    between atoms: _637  and  _640
REMARK  248  A    between atoms: _640  and  _641
REMARK  249  A    between atoms: _646  and  _647
REMARK  250  A    between atoms: _649  and  _651
REMARK  251  A    between atoms: _651  and  _652
REMARK  252  A    between atoms: _651  and  _654
REMARK  253  A    between atoms: _654  and  _655
REMARK  254  A    between atoms: _660  and  _662
REMARK  255  A    between atoms: _662  and  _663
REMARK  256  A    between atoms: _662  and  _665
REMARK  257  A    between atoms: _665  and  _666
REMARK  258  A    between atoms: _669  and  _671
REMARK  259  A    between atoms: _671  and  _672
REMARK  260  A    between atoms: _675  and  _677
REMARK  261  A    between atoms: _677  and  _678
REMARK  262  A    between atoms: _677  and  _680
REMARK  263  A    between atoms: _680  and  _681
REMARK  264  A    between atoms: _684  and  _686
REMARK  265  A    between atoms: _686  and  _687
REMARK  266  A    between atoms: _686  and  _689
REMARK  267  A    between atoms: _692  and  _694
REMARK  268  A    between atoms: _694  and  _695
REMARK  269  A    between atoms: _694  and  _697
REMARK  270  A    between atoms: _697  and  _698
REMARK  271  A    between atoms: _698  and  _699
REMARK  272  A    between atoms: _702  and  _704
REMARK  273  A    between atoms: _704  and  _705
REMARK  274  A    between atoms: _704  and  _707
REMARK  275  A    between atoms: _707  and  _708
REMARK  276  A    between atoms: _713  and  _714
REMARK  277  A    between atoms: _716  and  _718
REMARK  278  A    between atoms: _718  and  _719
REMARK  279  A    between atoms: _718  and  _721
REMARK  280  A    between atoms: _721  and  _722
REMARK  281  A    between atoms: _722  and  _723
REMARK  282  A    between atoms: _723  and  _724
REMARK  283  A    between atoms: _733  and  _735
REMARK  284  A    between atoms: _735  and  _736
REMARK  285  A    between atoms: _735  and  _738
REMARK  286  A    between atoms: _738  and  _739
REMARK  287  A    between atoms: _744  and  _745
REMARK  288  A    between atoms: _747  and  _749
REMARK  289  A    between atoms: _749  and  _750
REMARK  290  A    between atoms: _749  and  _752
REMARK  291  A    between atoms: _752  and  _753
REMARK  292  A    between atoms: _756  and  _758
REMARK  293  A    between atoms: _758  and  _759
REMARK  294  A    between atoms: _758  and  _761
REMARK  295  A    between atoms: _761  and  _762
REMARK  296  A    between atoms: _764  and  _766
REMARK  297  A    between atoms: _766  and  _767
REMARK  298  A    between atoms: _766  and  _769
REMARK  299  A    between atoms: _769  and  _770
REMARK  300  A    between atoms: _776  and  _778
REMARK  301  A    between atoms: _778  and  _779
REMARK  302  A    between atoms: _778  and  _781
REMARK  303  A    between atoms: _781  and  _782
REMARK  304  A    between atoms: _782  and  _783
REMARK                            x       y       z     vdW  Elec       q    Type
REMARK                         _______ _______ _______ _____ _____    ______ ____
ROOT
ATOM      1  O   HOH     1      28.628   2.507 -33.259  0.00  0.00    +0.000 OA
ENDROOT
TORSDOF 0
REMARK  Name = ../refined-set-2016/4ca8/4ca8_pocket.pdb
REMARK  304 active torsions:
REMARK  status: ('A' for Active; 'I' for Inactive)
REMARK    1  A    between atoms: _1  and  _3
REMARK    2  A    between atoms: _3  and  _4
REMARK    3  A    between atoms: _3  and  _6
REMARK    4  A    between atoms: _6  and  _7
REMARK    5  A    between atoms: _7  and  _8
REMARK    6  A    between atoms: _11  and  _13
REMARK    7  A    between atoms: _13  and  _14
REMARK    8  A    between atoms: _13  and  _16
REMARK    9  A    between atoms: _16  and  _17
REMARK   10  A    between atoms: _17  and  _18
REMARK   11  A    between atoms: _21  and  _23
REMARK   12  A    between atoms: _23  and  _24
REMARK   13  A    between atoms: _23  and  _26
REMARK   14  A    between atoms: _26  and  _27
REMARK   15  A    between atoms: _32  and  _34
REMARK   16  A    between atoms: _34  and  _35
REMARK   17  A    between atoms: _34  and  _37
REMARK   18  A    between atoms: _37  and  _38
REMARK   19  A    between atoms: _48  and  _50
REMARK   20  A    between atoms: _50  and  _51
REMARK   21  A    between atoms: _50  and  _53
REMARK   22  A    between atoms: _53  and  _54
REMARK   23  A    between atoms: _54  and  _55
REMARK   24  A    between atoms: _60  and  _62
REMARK   25  A    between atoms: _62  and  _63
REMARK   26  A    between atoms: _62  and  _65
REMARK   27  A    between atoms: _65  and  _66
REMARK   28  A    between atoms: _66  and  _67
REMARK   29  A    between atoms: _72  and  _74
REMARK   30  A    between atoms: _74  and  _75
REMARK   31  A    between atoms: _74  and  _77
REMARK   32  A    between atoms: _77  and  _78
REMARK   33  A    between atoms: _80  and  _82
REMARK   34  A    between atoms: _82  and  _83
REMARK   35  A    between atoms: _82  and  _85
REMARK   36  A    between atoms: _85  and  _86
REMARK   37  A    between atoms: _86  and  _87
REMARK   38  A    between atoms: _90  and  _92
REMARK   39  A    between atoms: _92  and  _93
REMARK   40  A    between atoms: _92  and  _95
REMARK   41  A    between atoms: _98  and  _100
REMARK   42  A    between atoms: _100  and  _101
REMARK   43  A    between atoms: _100  and  _103
REMARK   44  A    between atoms: _105  and  _107
REMARK   45  A    between atoms: _107  and  _108
REMARK   46  A    between atoms: _107  and  _110
REMARK   47  A    between atoms: _110  and  _111
REMARK   48  A    between atoms: _116  and  _118
REMARK   49  A    between atoms: _118  and  _119
REMARK   50  A    between atoms: _122  and  _124
REMARK   51  A    between atoms: _124  and  _125
REMARK   52  A    between atoms: _124  and  _127
REMARK   53  A    between atoms: _127  and  _128
REMARK   54  A    between atoms: _130  and  _132
REMARK   55  A    between atoms: _132  and  _133
REMARK   56  A    between atoms: _136  and  _138
REMARK   57  A    between atoms: _138  and  _139
REMARK   58  A    between atoms: _138  and  _141
REMARK   59  A    between atoms: _141  and  _142
REMARK   60  A    between atoms: _152  and  _154
REMARK   61  A    between atoms: _154  and  _155
REMARK   62  A    between atoms: _154  and  _157
REMARK   63  A    between atoms: _157  and  _158
REMARK   64  A    between atoms: _161  and  _163
REMARK   65  A    between atoms: _163  and  _164
REMARK   66  A    between atoms: _163  and  _166
REMARK   67  A    between atoms: _166  and  _167
REMARK   68  A    between atoms: _172  and  _173
REMARK   69  A    between atoms: _175  and  _177
REMARK   70  A    between atoms: _177  and  _178
REMARK   71  A    between atoms: _177  and  _180
REMARK   72  A    between atoms: _180  and  _181
REMARK   73  A    between atoms: _181  and  _182
REMARK   74  A    between atoms: _182  and  _183
REMARK   75  A    between atoms: _192  and  _194
REMARK   76  A    between atoms: _194  and  _195
REMARK   77  A    between atoms: _194  and  _197
REMARK   78  A    between atoms: _197  and  _198
REMARK   79  A    between atoms: _201  and  _203
REMARK   80  A    between atoms: _203  and  _204
REMARK   81  A    between atoms: _203  and  _206
REMARK   82  A    between atoms: _206  and  _207
REMARK   83  A    between atoms: _207  and  _208
REMARK   84  A    between atoms: _208  and  _209
REMARK   85  A    between atoms: _209  and  _210
REMARK   86  A    between atoms: _214  and  _216
REMARK   87  A    between atoms: _216  and  _217
REMARK   88  A    between atoms: _216  and  _219
REMARK   89  A    between atoms: _219  and  _220
REMARK   90  A    between atoms: _220  and  _221
REMARK   91  A    between atoms: _226  and  _228
REMARK   92  A    between atoms: _228  and  _229
REMARK   93  A    between atoms: _228  and  _231
REMARK   94  A    between atoms: _231  and  _232
REMARK   95  A    between atoms: _232  and  _233
REMARK   96  A    between atoms: _233  and  _234
REMARK   97  A    between atoms: _243  and  _245
REMARK   98  A    between atoms: _245  and  _246
REMARK   99  A    between atoms: _245  and  _248
REMARK  100  A    between atoms: _248  and  _249
REMARK  101  A    between atoms: _252  and  _254
REMARK  102  A    between atoms: _254  and  _255
REMARK  103  A    between atoms: _254  and  _257
REMARK  104  A    between atoms: _257  and  _258
REMARK  105  A    between atoms: _258  and  _259
REMARK  106  A    between atoms: _264  and  _266
REMARK  107  A    between atoms: _266  and  _267
REMARK  108  A    between atoms: _266  and  _269
REMARK  109  A    between atoms: _269  and  _270
REMARK  110  A    between atoms: _273  and  _275
REMARK  111  A    between atoms: _275  and  _276
REMARK  112  A    between atoms: _275  and  _278
REMARK  113  A    between atoms: _278  and  _279
REMARK  114  A    between atoms: _279  and  _280
REMARK  115  A    between atoms: _285  and  _287
REMARK  116  A    between atoms: _287  and  _288
REMARK  117  A    between atoms: _287  and  _290
REMARK  118  A    between atoms: _290  and  _291
REMARK  119  A    between atoms: _294  and  _296
REMARK  120  A    between atoms: _296  and  _297
REMARK  121  A    between atoms: _296  and  _299
REMARK  122  A    between atoms: _299  and  _300
REMARK  123  A    between atoms: _306  and  _308
REMARK  124  A    between atoms: _308  and  _309
REMARK  125  A    between atoms: _308  and  _311
REMARK  126  A    between atoms: _311  and  _312
REMARK  127  A    between atoms: _315  and  _317
REMARK  128  A    between atoms: _317  and  _318
REMARK  129  A    between atoms: _317  and  _320
REMARK  130  A    between atoms: _323  and  _325
REMARK  131  A    between atoms: _325  and  _326
REMARK  132  A    between atoms: _325  and  _328
REMARK  133  A    between atoms: _328  and  _329
REMARK  134  A    between atoms: _334  and  _336
REMARK  135  A    between atoms: _347  and  _350
REMARK  136  A    between atoms: _350  and  _351
REMARK  137  A    between atoms: _351  and  _352
REMARK  138  A    between atoms: _357  and  _360
REMARK  139  A    between atoms: _360  and  _361
REMARK  140  A    between atoms: _371  and  _372
REMARK  141  A    between atoms: _380  and  _382
REMARK  142  A    between atoms: _382  and  _383
REMARK  143  A    between atoms: _382  and  _385
REMARK  144  A    between atoms: _385  and  _386
REMARK  145  A    between atoms: _389  and  _391
REMARK  146  A    between atoms: _391  and  _392
REMARK  147  A    between atoms: _391  and  _394
REMARK  148  A    between atoms: _394  and  _395
REMARK  149  A    between atoms: _400  and  _401
REMARK  150  A    between atoms: _403  and  _405
REMARK  151  A    between atoms: _405  and  _406
REMARK  152  A    between atoms: _405  and  _408
REMARK  153  A    between atoms: _408  and  _409
REMARK  154  A    between atoms: _415  and  _417
REMARK  155  A    between atoms: _417  and  _418
REMARK  156  A    between atoms: _417  and  _420
REMARK  157  A    between atoms: _420  and  _421
REMARK  158  A    between atoms: _426  and  _427
REMARK  159  A    between atoms: _429  and  _431
REMARK  160  A    between atoms: _431  and  _432
REMARK  161  A    between atoms: _431  and  _434
REMARK  162  A    between atoms: _434  and  _435
REMARK  163  A    between atoms: _435  and  _436
REMARK  164  A    between atoms: _436  and  _437
REMARK  165  A    between atoms: _446  and  _448
REMARK  166  A    between atoms: _448  and  _449
REMARK  167  A    between atoms: _448  and  _451
REMARK  168  A    between atoms: _451  and  _452
REMARK  169  A    between atoms: _455  and  _457
REMARK  170  A    between atoms: _457  and  _458
REMARK  171  A    between atoms: _460  and  _462
REMARK  172  A    between atoms: _462  and  _463
REMARK  173  A    between atoms: _462  and  _465
REMARK  174  A    between atoms: _465  and  _466
REMARK  175  A    between atoms: _472  and  _473
REMARK  176  A    between atoms: _478  and  _480
REMARK  177  A    between atoms: _480  and  _481
REMARK  178  A    between atoms: _483  and  _485
REMARK  179  A    between atoms: _485  and  _486
REMARK  180  A    between atoms: _485  and  _488
REMARK  181  A    between atoms: _488  and  _489
REMARK  182  A    between atoms: _495  and  _497
REMARK  183  A    between atoms: _497  and  _498
REMARK  184  A    between atoms: _497  and  _500
REMARK  185  A    between atoms: _500  and  _501
REMARK  186  A    between atoms: _506  and  _508
REMARK  187  A    between atoms: _508  and  _509
REMARK  188  A    between atoms: _508  and  _511
REMARK  189  A    between atoms: _511  and  _512
REMARK  190  A    between atoms: _512  and  _513
REMARK  191  A    between atoms: _513  and  _514
REMARK  192  A    between atoms: _514  and  ZN_788
REMARK  193  A    between atoms: _516  and  _518
REMARK  194  A    between atoms: _518  and  _519
REMARK  195  A    between atoms: _522  and  _524
REMARK  196  A    between atoms: _524  and  _525
REMARK  197  A    between atoms: _527  and  _529
REMARK  198  A    between atoms: _529  and  _530
REMARK  199  A    between atoms: _529  and  _532
REMARK  200  A    between atoms: _532  and  _533
REMARK  201  A    between atoms: _536  and  _538
REMARK  202  A    between atoms: _538  and  _539
REMARK  203  A    between atoms: _538  and  _541
REMARK  204  A    between atoms: _544  and  _546
REMARK  205  A    between atoms: _546  and  _547
REMARK  206  A    between atoms: _546  and  _549
REMARK  207  A    between atoms: _549  and  _550
REMARK  208  A    between atoms: _552  and  _554
REMARK  209  A    between atoms: _554  and  _555
REMARK  210  A    between atoms: _554  and  _557
REMARK  211  A    between atoms: _557  and  _558
REMARK  212  A    between atoms: _561  and  _563
REMARK  213  A    between atoms: _563  and  _564
REMARK  214  A    between atoms: _563  and  _566
REMARK  215  A    between atoms: _566  and  _567
REMARK  216  A    between atoms: _570  and  _572
REMARK  217  A    between atoms: _572  and  _573
REMARK  218  A    between atoms: _572  and  _575
REMARK  219  A    between atoms: _575  and  _576
REMARK  220  A    between atoms: _576  and  _577
REMARK  221  A    between atoms: _577  and  _578
REMARK  222  A    between atoms: _578  and  _579
REMARK  223  A    between atoms: _583  and  _585
REMARK  224  A    between atoms: _585  and  _586
REMARK  225  A    between atoms: _585  and  _588
REMARK  226  A    between atoms: _588  and  _589
REMARK  227  A    between atoms: _595  and  _597
REMARK  228  A    between atoms: _597  and  _598
REMARK  229  A    between atoms: _597  and  _600
REMARK  230  A    between atoms: _600  and  _601
REMARK  231  A    between atoms: _607  and  _609
REMARK  232  A    between atoms: _609  and  _610
REMARK  233  A    between atoms: _613  and  _615
REMARK  234  A    between atoms: _615  and  _616
REMARK  235  A    between atoms: _615  and  _618
REMARK  236  A    between atoms: _618  and  _619
REMARK  237  A    between atoms: _619  and  _620
REMARK  238  A    between atoms: _622  and  _624
REMARK  239  A    between atoms: _624  and  _625
REMARK  240  A    between atoms: _624  and  _627
REMARK  241  A    between atoms: _627  and  _628
REMARK  242  A    between atoms: _628  and  _629
REMARK  243  A    between atoms: _629  and  _630
REMARK  244  A    between atoms: _630  and  _631
REMARK  245  A    between atoms: _635  and  _637
REMARK  246  A    between atoms: _637  and  _638
REMARK  247  A    between atoms: _637  and  _640
REMARK  248  A    between atoms: _640  and  _641
REMARK  249  A    between atoms: _646  and  _647
REMARK  250  A    between atoms: _649  and  _651
REMARK  251  A    between atoms: _651  and  _652
REMARK  252  A    between atoms: _651  and  _654
REMARK  253  A    between atoms: _654  and  _655
REMARK  254  A    between atoms: _660  and  _662
REMARK  255  A    between atoms: _662  and  _663
REMARK  256  A    between atoms: _662  and  _665
REMARK  257  A    between atoms: _665  and  _666
REMARK  258  A    between atoms: _669  and  _671
REMARK  259  A    between atoms: _671  and  _672
REMARK  260  A    between atoms: _675  and  _677
REMARK  261  A    between atoms: _677  and  _678
REMARK  262  A    between atoms: _677  and  _680
REMARK  263  A    between atoms: _680  and  _681
REMARK  264  A    between atoms: _684  and  _686
REMARK  265  A    between atoms: _686  and  _687
REMARK  266  A    between atoms: _686  and  _689
REMARK  267  A    between atoms: _692  and  _694
REMARK  268  A    between atoms: _694  and  _695
REMARK  269  A    between atoms: _694  and  _697
REMARK  270  A    between atoms: _697  and  _698
REMARK  271  A    between atoms: _698  and  _699
REMARK  272  A    between atoms: _702  and  _704
REMARK  273  A    between atoms: _704  and  _705
REMARK  274  A    between atoms: _704  and  _707
REMARK  275  A    between atoms: _707  and  _708
REMARK  276  A    between atoms: _713  and  _714
REMARK  277  A    between atoms: _716  and  _718
REMARK  278  A    between atoms: _718  and  _719
REMARK  279  A    between atoms: _718  and  _721
REMARK  280  A    between atoms: _721  and  _722
REMARK  281  A    between atoms: _722  and  _723
REMARK  282  A    between atoms: _723  and  _724
REMARK  283  A    between atoms: _733  and  _735
REMARK  284  A    between atoms: _735  and  _736
REMARK  285  A    between atoms: _735  and  _738
REMARK  286  A    between atoms: _738  and  _739
REMARK  287  A    between atoms: _744  and  _745
REMARK  288  A    between atoms: _747  and  _749
REMARK  289  A    between atoms: _749  and  _750
REMARK  290  A    between atoms: _749  and  _752
REMARK  291  A    between atoms: _752  and  _753
REMARK  292  A    between atoms: _756  and  _758
REMARK  293  A    between atoms: _758  and  _759
REMARK  294  A    between atoms: _758  and  _761
REMARK  295  A    between atoms: _761  and  _762
REMARK  296  A    between atoms: _764  and  _766
REMARK  297  A    between atoms: _766  and  _767
REMARK  298  A    between atoms: _766  and  _769
REMARK  299  A    between atoms: _769  and  _770
REMARK  300  A    between atoms: _776  and  _778
REMARK  301  A    between atoms: _778  and  _779
REMARK  302  A    between atoms: _778  and  _781
REMARK  303  A    between atoms: _781  and  _782
REMARK  304  A    between atoms: _782  and  _783
REMARK                            x       y       z     vdW  Elec       q    Type
REMARK                         _______ _______ _______ _____ _____    ______ ____
ROOT
ATOM      1  O   HOH     1      28.389  -6.489 -39.089  0.00  0.00    +0.000 OA
ENDROOT
TORSDOF 0
REMARK  Name = ../refined-set-2016/4ca8/4ca8_pocket.pdb
REMARK  304 active torsions:
REMARK  status: ('A' for Active; 'I' for Inactive)
REMARK    1  A    between atoms: _1  and  _3
REMARK    2  A    between atoms: _3  and  _4
REMARK    3  A    between atoms: _3  and  _6
REMARK    4  A    between atoms: _6  and  _7
REMARK    5  A    between atoms: _7  and  _8
REMARK    6  A    between atoms: _11  and  _13
REMARK    7  A    between atoms: _13  and  _14
REMARK    8  A    between atoms: _13  and  _16
REMARK    9  A    between atoms: _16  and  _17
REMARK   10  A    between atoms: _17  and  _18
REMARK   11  A    between atoms: _21  and  _23
REMARK   12  A    between atoms: _23  and  _24
REMARK   13  A    between atoms: _23  and  _26
REMARK   14  A    between atoms: _26  and  _27
REMARK   15  A    between atoms: _32  and  _34
REMARK   16  A    between atoms: _34  and  _35
REMARK   17  A    between atoms: _34  and  _37
REMARK   18  A    between atoms: _37  and  _38
REMARK   19  A    between atoms: _48  and  _50
REMARK   20  A    between atoms: _50  and  _51
REMARK   21  A    between atoms: _50  and  _53
REMARK   22  A    between atoms: _53  and  _54
REMARK   23  A    between atoms: _54  and  _55
REMARK   24  A    between atoms: _60  and  _62
REMARK   25  A    between atoms: _62  and  _63
REMARK   26  A    between atoms: _62  and  _65
REMARK   27  A    between atoms: _65  and  _66
REMARK   28  A    between atoms: _66  and  _67
REMARK   29  A    between atoms: _72  and  _74
REMARK   30  A    between atoms: _74  and  _75
REMARK   31  A    between atoms: _74  and  _77
REMARK   32  A    between atoms: _77  and  _78
REMARK   33  A    between atoms: _80  and  _82
REMARK   34  A    between atoms: _82  and  _83
REMARK   35  A    between atoms: _82  and  _85
REMARK   36  A    between atoms: _85  and  _86
REMARK   37  A    between atoms: _86  and  _87
REMARK   38  A    between atoms: _90  and  _92
REMARK   39  A    between atoms: _92  and  _93
REMARK   40  A    between atoms: _92  and  _95
REMARK   41  A    between atoms: _98  and  _100
REMARK   42  A    between atoms: _100  and  _101
REMARK   43  A    between atoms: _100  and  _103
REMARK   44  A    between atoms: _105  and  _107
REMARK   45  A    between atoms: _107  and  _108
REMARK   46  A    between atoms: _107  and  _110
REMARK   47  A    between atoms: _110  and  _111
REMARK   48  A    between atoms: _116  and  _118
REMARK   49  A    between atoms: _118  and  _119
REMARK   50  A    between atoms: _122  and  _124
REMARK   51  A    between atoms: _124  and  _125
REMARK   52  A    between atoms: _124  and  _127
REMARK   53  A    between atoms: _127  and  _128
REMARK   54  A    between atoms: _130  and  _132
REMARK   55  A    between atoms: _132  and  _133
REMARK   56  A    between atoms: _136  and  _138
REMARK   57  A    between atoms: _138  and  _139
REMARK   58  A    between atoms: _138  and  _141
REMARK   59  A    between atoms: _141  and  _142
REMARK   60  A    between atoms: _152  and  _154
REMARK   61  A    between atoms: _154  and  _155
REMARK   62  A    between atoms: _154  and  _157
REMARK   63  A    between atoms: _157  and  _158
REMARK   64  A    between atoms: _161  and  _163
REMARK   65  A    between atoms: _163  and  _164
REMARK   66  A    between atoms: _163  and  _166
REMARK   67  A    between atoms: _166  and  _167
REMARK   68  A    between atoms: _172  and  _173
REMARK   69  A    between atoms: _175  and  _177
REMARK   70  A    between atoms: _177  and  _178
REMARK   71  A    between atoms: _177  and  _180
REMARK   72  A    between atoms: _180  and  _181
REMARK   73  A    between atoms: _181  and  _182
REMARK   74  A    between atoms: _182  and  _183
REMARK   75  A    between atoms: _192  and  _194
REMARK   76  A    between atoms: _194  and  _195
REMARK   77  A    between atoms: _194  and  _197
REMARK   78  A    between atoms: _197  and  _198
REMARK   79  A    between atoms: _201  and  _203
REMARK   80  A    between atoms: _203  and  _204
REMARK   81  A    between atoms: _203  and  _206
REMARK   82  A    between atoms: _206  and  _207
REMARK   83  A    between atoms: _207  and  _208
REMARK   84  A    between atoms: _208  and  _209
REMARK   85  A    between atoms: _209  and  _210
REMARK   86  A    between atoms: _214  and  _216
REMARK   87  A    between atoms: _216  and  _217
REMARK   88  A    between atoms: _216  and  _219
REMARK   89  A    between atoms: _219  and  _220
REMARK   90  A    between atoms: _220  and  _221
REMARK   91  A    between atoms: _226  and  _228
REMARK   92  A    between atoms: _228  and  _229
REMARK   93  A    between atoms: _228  and  _231
REMARK   94  A    between atoms: _231  and  _232
REMARK   95  A    between atoms: _232  and  _233
REMARK   96  A    between atoms: _233  and  _234
REMARK   97  A    between atoms: _243  and  _245
REMARK   98  A    between atoms: _245  and  _246
REMARK   99  A    between atoms: _245  and  _248
REMARK  100  A    between atoms: _248  and  _249
REMARK  101  A    between atoms: _252  and  _254
REMARK  102  A    between atoms: _254  and  _255
REMARK  103  A    between atoms: _254  and  _257
REMARK  104  A    between atoms: _257  and  _258
REMARK  105  A    between atoms: _258  and  _259
REMARK  106  A    between atoms: _264  and  _266
REMARK  107  A    between atoms: _266  and  _267
REMARK  108  A    between atoms: _266  and  _269
REMARK  109  A    between atoms: _269  and  _270
REMARK  110  A    between atoms: _273  and  _275
REMARK  111  A    between atoms: _275  and  _276
REMARK  112  A    between atoms: _275  and  _278
REMARK  113  A    between atoms: _278  and  _279
REMARK  114  A    between atoms: _279  and  _280
REMARK  115  A    between atoms: _285  and  _287
REMARK  116  A    between atoms: _287  and  _288
REMARK  117  A    between atoms: _287  and  _290
REMARK  118  A    between atoms: _290  and  _291
REMARK  119  A    between atoms: _294  and  _296
REMARK  120  A    between atoms: _296  and  _297
REMARK  121  A    between atoms: _296  and  _299
REMARK  122  A    between atoms: _299  and  _300
REMARK  123  A    between atoms: _306  and  _308
REMARK  124  A    between atoms: _308  and  _309
REMARK  125  A    between atoms: _308  and  _311
REMARK  126  A    between atoms: _311  and  _312
REMARK  127  A    between atoms: _315  and  _317
REMARK  128  A    between atoms: _317  and  _318
REMARK  129  A    between atoms: _317  and  _320
REMARK  130  A    between atoms: _323  and  _325
REMARK  131  A    between atoms: _325  and  _326
REMARK  132  A    between atoms: _325  and  _328
REMARK  133  A    between atoms: _328  and  _329
REMARK  134  A    between atoms: _334  and  _336
REMARK  135  A    between atoms: _347  and  _350
REMARK  136  A    between atoms: _350  and  _351
REMARK  137  A    between atoms: _351  and  _352
REMARK  138  A    between atoms: _357  and  _360
REMARK  139  A    between atoms: _360  and  _361
REMARK  140  A    between atoms: _371  and  _372
REMARK  141  A    between atoms: _380  and  _382
REMARK  142  A    between atoms: _382  and  _383
REMARK  143  A    between atoms: _382  and  _385
REMARK  144  A    between atoms: _385  and  _386
REMARK  145  A    between atoms: _389  and  _391
REMARK  146  A    between atoms: _391  and  _392
REMARK  147  A    between atoms: _391  and  _394
REMARK  148  A    between atoms: _394  and  _395
REMARK  149  A    between atoms: _400  and  _401
REMARK  150  A    between atoms: _403  and  _405
REMARK  151  A    between atoms: _405  and  _406
REMARK  152  A    between atoms: _405  and  _408
REMARK  153  A    between atoms: _408  and  _409
REMARK  154  A    between atoms: _415  and  _417
REMARK  155  A    between atoms: _417  and  _418
REMARK  156  A    between atoms: _417  and  _420
REMARK  157  A    between atoms: _420  and  _421
REMARK  158  A    between atoms: _426  and  _427
REMARK  159  A    between atoms: _429  and  _431
REMARK  160  A    between atoms: _431  and  _432
REMARK  161  A    between atoms: _431  and  _434
REMARK  162  A    between atoms: _434  and  _435
REMARK  163  A    between atoms: _435  and  _436
REMARK  164  A    between atoms: _436  and  _437
REMARK  165  A    between atoms: _446  and  _448
REMARK  166  A    between atoms: _448  and  _449
REMARK  167  A    between atoms: _448  and  _451
REMARK  168  A    between atoms: _451  and  _452
REMARK  169  A    between atoms: _455  and  _457
REMARK  170  A    between atoms: _457  and  _458
REMARK  171  A    between atoms: _460  and  _462
REMARK  172  A    between atoms: _462  and  _463
REMARK  173  A    between atoms: _462  and  _465
REMARK  174  A    between atoms: _465  and  _466
REMARK  175  A    between atoms: _472  and  _473
REMARK  176  A    between atoms: _478  and  _480
REMARK  177  A    between atoms: _480  and  _481
REMARK  178  A    between atoms: _483  and  _485
REMARK  179  A    between atoms: _485  and  _486
REMARK  180  A    between atoms: _485  and  _488
REMARK  181  A    between atoms: _488  and  _489
REMARK  182  A    between atoms: _495  and  _497
REMARK  183  A    between atoms: _497  and  _498
REMARK  184  A    between atoms: _497  and  _500
REMARK  185  A    between atoms: _500  and  _501
REMARK  186  A    between atoms: _506  and  _508
REMARK  187  A    between atoms: _508  and  _509
REMARK  188  A    between atoms: _508  and  _511
REMARK  189  A    between atoms: _511  and  _512
REMARK  190  A    between atoms: _512  and  _513
REMARK  191  A    between atoms: _513  and  _514
REMARK  192  A    between atoms: _514  and  ZN_788
REMARK  193  A    between atoms: _516  and  _518
REMARK  194  A    between atoms: _518  and  _519
REMARK  195  A    between atoms: _522  and  _524
REMARK  196  A    between atoms: _524  and  _525
REMARK  197  A    between atoms: _527  and  _529
REMARK  198  A    between atoms: _529  and  _530
REMARK  199  A    between atoms: _529  and  _532
REMARK  200  A    between atoms: _532  and  _533
REMARK  201  A    between atoms: _536  and  _538
REMARK  202  A    between atoms: _538  and  _539
REMARK  203  A    between atoms: _538  and  _541
REMARK  204  A    between atoms: _544  and  _546
REMARK  205  A    between atoms: _546  and  _547
REMARK  206  A    between atoms: _546  and  _549
REMARK  207  A    between atoms: _549  and  _550
REMARK  208  A    between atoms: _552  and  _554
REMARK  209  A    between atoms: _554  and  _555
REMARK  210  A    between atoms: _554  and  _557
REMARK  211  A    between atoms: _557  and  _558
REMARK  212  A    between atoms: _561  and  _563
REMARK  213  A    between atoms: _563  and  _564
REMARK  214  A    between atoms: _563  and  _566
REMARK  215  A    between atoms: _566  and  _567
REMARK  216  A    between atoms: _570  and  _572
REMARK  217  A    between atoms: _572  and  _573
REMARK  218  A    between atoms: _572  and  _575
REMARK  219  A    between atoms: _575  and  _576
REMARK  220  A    between atoms: _576  and  _577
REMARK  221  A    between atoms: _577  and  _578
REMARK  222  A    between atoms: _578  and  _579
REMARK  223  A    between atoms: _583  and  _585
REMARK  224  A    between atoms: _585  and  _586
REMARK  225  A    between atoms: _585  and  _588
REMARK  226  A    between atoms: _588  and  _589
REMARK  227  A    between atoms: _595  and  _597
REMARK  228  A    between atoms: _597  and  _598
REMARK  229  A    between atoms: _597  and  _600
REMARK  230  A    between atoms: _600  and  _601
REMARK  231  A    between atoms: _607  and  _609
REMARK  232  A    between atoms: _609  and  _610
REMARK  233  A    between atoms: _613  and  _615
REMARK  234  A    between atoms: _615  and  _616
REMARK  235  A    between atoms: _615  and  _618
REMARK  236  A    between atoms: _618  and  _619
REMARK  237  A    between atoms: _619  and  _620
REMARK  238  A    between atoms: _622  and  _624
REMARK  239  A    between atoms: _624  and  _625
REMARK  240  A    between atoms: _624  and  _627
REMARK  241  A    between atoms: _627  and  _628
REMARK  242  A    between atoms: _628  and  _629
REMARK  243  A    between atoms: _629  and  _630
REMARK  244  A    between atoms: _630  and  _631
REMARK  245  A    between atoms: _635  and  _637
REMARK  246  A    between atoms: _637  and  _638
REMARK  247  A    between atoms: _637  and  _640
REMARK  248  A    between atoms: _640  and  _641
REMARK  249  A    between atoms: _646  and  _647
REMARK  250  A    between atoms: _649  and  _651
REMARK  251  A    between atoms: _651  and  _652
REMARK  252  A    between atoms: _651  and  _654
REMARK  253  A    between atoms: _654  and  _655
REMARK  254  A    between atoms: _660  and  _662
REMARK  255  A    between atoms: _662  and  _663
REMARK  256  A    between atoms: _662  and  _665
REMARK  257  A    between atoms: _665  and  _666
REMARK  258  A    between atoms: _669  and  _671
REMARK  259  A    between atoms: _671  and  _672
REMARK  260  A    between atoms: _675  and  _677
REMARK  261  A    between atoms: _677  and  _678
REMARK  262  A    between atoms: _677  and  _680
REMARK  263  A    between atoms: _680  and  _681
REMARK  264  A    between atoms: _684  and  _686
REMARK  265  A    between atoms: _686  and  _687
REMARK  266  A    between atoms: _686  and  _689
REMARK  267  A    between atoms: _692  and  _694
REMARK  268  A    between atoms: _694  and  _695
REMARK  269  A    between atoms: _694  and  _697
REMARK  270  A    between atoms: _697  and  _698
REMARK  271  A    between atoms: _698  and  _699
REMARK  272  A    between atoms: _702  and  _704
REMARK  273  A    between atoms: _704  and  _705
REMARK  274  A    between atoms: _704  and  _707
REMARK  275  A    between atoms: _707  and  _708
REMARK  276  A    between atoms: _713  and  _714
REMARK  277  A    between atoms: _716  and  _718
REMARK  278  A    between atoms: _718  and  _719
REMARK  279  A    between atoms: _718  and  _721
REMARK  280  A    between atoms: _721  and  _722
REMARK  281  A    between atoms: _722  and  _723
REMARK  282  A    between atoms: _723  and  _724
REMARK  283  A    between atoms: _733  and  _735
REMARK  284  A    between atoms: _735  and  _736
REMARK  285  A    between atoms: _735  and  _738
REMARK  286  A    between atoms: _738  and  _739
REMARK  287  A    between atoms: _744  and  _745
REMARK  288  A    between atoms: _747  and  _749
REMARK  289  A    between atoms: _749  and  _750
REMARK  290  A    between atoms: _749  and  _752
REMARK  291  A    between atoms: _752  and  _753
REMARK  292  A    between atoms: _756  and  _758
REMARK  293  A    between atoms: _758  and  _759
REMARK  294  A    between atoms: _758  and  _761
REMARK  295  A    between atoms: _761  and  _762
REMARK  296  A    between atoms: _764  and  _766
REMARK  297  A    between atoms: _766  and  _767
REMARK  298  A    between atoms: _766  and  _769
REMARK  299  A    between atoms: _769  and  _770
REMARK  300  A    between atoms: _776  and  _778
REMARK  301  A    between atoms: _778  and  _779
REMARK  302  A    between atoms: _778  and  _781
REMARK  303  A    between atoms: _781  and  _782
REMARK  304  A    between atoms: _782  and  _783
REMARK                            x       y       z     vdW  Elec       q    Type
REMARK                         _______ _______ _______ _____ _____    ______ ____
ROOT
ATOM      1  O   HOH     1      30.599  -9.570 -37.919  0.00  0.00    +0.000 OA
ENDROOT
TORSDOF 0
REMARK  Name = ../refined-set-2016/4ca8/4ca8_pocket.pdb
REMARK  304 active torsions:
REMARK  status: ('A' for Active; 'I' for Inactive)
REMARK    1  A    between atoms: _1  and  _3
REMARK    2  A    between atoms: _3  and  _4
REMARK    3  A    between atoms: _3  and  _6
REMARK    4  A    between atoms: _6  and  _7
REMARK    5  A    between atoms: _7  and  _8
REMARK    6  A    between atoms: _11  and  _13
REMARK    7  A    between atoms: _13  and  _14
REMARK    8  A    between atoms: _13  and  _16
REMARK    9  A    between atoms: _16  and  _17
REMARK   10  A    between atoms: _17  and  _18
REMARK   11  A    between atoms: _21  and  _23
REMARK   12  A    between atoms: _23  and  _24
REMARK   13  A    between atoms: _23  and  _26
REMARK   14  A    between atoms: _26  and  _27
REMARK   15  A    between atoms: _32  and  _34
REMARK   16  A    between atoms: _34  and  _35
REMARK   17  A    between atoms: _34  and  _37
REMARK   18  A    between atoms: _37  and  _38
REMARK   19  A    between atoms: _48  and  _50
REMARK   20  A    between atoms: _50  and  _51
REMARK   21  A    between atoms: _50  and  _53
REMARK   22  A    between atoms: _53  and  _54
REMARK   23  A    between atoms: _54  and  _55
REMARK   24  A    between atoms: _60  and  _62
REMARK   25  A    between atoms: _62  and  _63
REMARK   26  A    between atoms: _62  and  _65
REMARK   27  A    between atoms: _65  and  _66
REMARK   28  A    between atoms: _66  and  _67
REMARK   29  A    between atoms: _72  and  _74
REMARK   30  A    between atoms: _74  and  _75
REMARK   31  A    between atoms: _74  and  _77
REMARK   32  A    between atoms: _77  and  _78
REMARK   33  A    between atoms: _80  and  _82
REMARK   34  A    between atoms: _82  and  _83
REMARK   35  A    between atoms: _82  and  _85
REMARK   36  A    between atoms: _85  and  _86
REMARK   37  A    between atoms: _86  and  _87
REMARK   38  A    between atoms: _90  and  _92
REMARK   39  A    between atoms: _92  and  _93
REMARK   40  A    between atoms: _92  and  _95
REMARK   41  A    between atoms: _98  and  _100
REMARK   42  A    between atoms: _100  and  _101
REMARK   43  A    between atoms: _100  and  _103
REMARK   44  A    between atoms: _105  and  _107
REMARK   45  A    between atoms: _107  and  _108
REMARK   46  A    between atoms: _107  and  _110
REMARK   47  A    between atoms: _110  and  _111
REMARK   48  A    between atoms: _116  and  _118
REMARK   49  A    between atoms: _118  and  _119
REMARK   50  A    between atoms: _122  and  _124
REMARK   51  A    between atoms: _124  and  _125
REMARK   52  A    between atoms: _124  and  _127
REMARK   53  A    between atoms: _127  and  _128
REMARK   54  A    between atoms: _130  and  _132
REMARK   55  A    between atoms: _132  and  _133
REMARK   56  A    between atoms: _136  and  _138
REMARK   57  A    between atoms: _138  and  _139
REMARK   58  A    between atoms: _138  and  _141
REMARK   59  A    between atoms: _141  and  _142
REMARK   60  A    between atoms: _152  and  _154
REMARK   61  A    between atoms: _154  and  _155
REMARK   62  A    between atoms: _154  and  _157
REMARK   63  A    between atoms: _157  and  _158
REMARK   64  A    between atoms: _161  and  _163
REMARK   65  A    between atoms: _163  and  _164
REMARK   66  A    between atoms: _163  and  _166
REMARK   67  A    between atoms: _166  and  _167
REMARK   68  A    between atoms: _172  and  _173
REMARK   69  A    between atoms: _175  and  _177
REMARK   70  A    between atoms: _177  and  _178
REMARK   71  A    between atoms: _177  and  _180
REMARK   72  A    between atoms: _180  and  _181
REMARK   73  A    between atoms: _181  and  _182
REMARK   74  A    between atoms: _182  and  _183
REMARK   75  A    between atoms: _192  and  _194
REMARK   76  A    between atoms: _194  and  _195
REMARK   77  A    between atoms: _194  and  _197
REMARK   78  A    between atoms: _197  and  _198
REMARK   79  A    between atoms: _201  and  _203
REMARK   80  A    between atoms: _203  and  _204
REMARK   81  A    between atoms: _203  and  _206
REMARK   82  A    between atoms: _206  and  _207
REMARK   83  A    between atoms: _207  and  _208
REMARK   84  A    between atoms: _208  and  _209
REMARK   85  A    between atoms: _209  and  _210
REMARK   86  A    between atoms: _214  and  _216
REMARK   87  A    between atoms: _216  and  _217
REMARK   88  A    between atoms: _216  and  _219
REMARK   89  A    between atoms: _219  and  _220
REMARK   90  A    between atoms: _220  and  _221
REMARK   91  A    between atoms: _226  and  _228
REMARK   92  A    between atoms: _228  and  _229
REMARK   93  A    between atoms: _228  and  _231
REMARK   94  A    between atoms: _231  and  _232
REMARK   95  A    between atoms: _232  and  _233
REMARK   96  A    between atoms: _233  and  _234
REMARK   97  A    between atoms: _243  and  _245
REMARK   98  A    between atoms: _245  and  _246
REMARK   99  A    between atoms: _245  and  _248
REMARK  100  A    between atoms: _248  and  _249
REMARK  101  A    between atoms: _252  and  _254
REMARK  102  A    between atoms: _254  and  _255
REMARK  103  A    between atoms: _254  and  _257
REMARK  104  A    between atoms: _257  and  _258
REMARK  105  A    between atoms: _258  and  _259
REMARK  106  A    between atoms: _264  and  _266
REMARK  107  A    between atoms: _266  and  _267
REMARK  108  A    between atoms: _266  and  _269
REMARK  109  A    between atoms: _269  and  _270
REMARK  110  A    between atoms: _273  and  _275
REMARK  111  A    between atoms: _275  and  _276
REMARK  112  A    between atoms: _275  and  _278
REMARK  113  A    between atoms: _278  and  _279
REMARK  114  A    between atoms: _279  and  _280
REMARK  115  A    between atoms: _285  and  _287
REMARK  116  A    between atoms: _287  and  _288
REMARK  117  A    between atoms: _287  and  _290
REMARK  118  A    between atoms: _290  and  _291
REMARK  119  A    between atoms: _294  and  _296
REMARK  120  A    between atoms: _296  and  _297
REMARK  121  A    between atoms: _296  and  _299
REMARK  122  A    between atoms: _299  and  _300
REMARK  123  A    between atoms: _306  and  _308
REMARK  124  A    between atoms: _308  and  _309
REMARK  125  A    between atoms: _308  and  _311
REMARK  126  A    between atoms: _311  and  _312
REMARK  127  A    between atoms: _315  and  _317
REMARK  128  A    between atoms: _317  and  _318
REMARK  129  A    between atoms: _317  and  _320
REMARK  130  A    between atoms: _323  and  _325
REMARK  131  A    between atoms: _325  and  _326
REMARK  132  A    between atoms: _325  and  _328
REMARK  133  A    between atoms: _328  and  _329
REMARK  134  A    between atoms: _334  and  _336
REMARK  135  A    between atoms: _347  and  _350
REMARK  136  A    between atoms: _350  and  _351
REMARK  137  A    between atoms: _351  and  _352
REMARK  138  A    between atoms: _357  and  _360
REMARK  139  A    between atoms: _360  and  _361
REMARK  140  A    between atoms: _371  and  _372
REMARK  141  A    between atoms: _380  and  _382
REMARK  142  A    between atoms: _382  and  _383
REMARK  143  A    between atoms: _382  and  _385
REMARK  144  A    between atoms: _385  and  _386
REMARK  145  A    between atoms: _389  and  _391
REMARK  146  A    between atoms: _391  and  _392
REMARK  147  A    between atoms: _391  and  _394
REMARK  148  A    between atoms: _394  and  _395
REMARK  149  A    between atoms: _400  and  _401
REMARK  150  A    between atoms: _403  and  _405
REMARK  151  A    between atoms: _405  and  _406
REMARK  152  A    between atoms: _405  and  _408
REMARK  153  A    between atoms: _408  and  _409
REMARK  154  A    between atoms: _415  and  _417
REMARK  155  A    between atoms: _417  and  _418
REMARK  156  A    between atoms: _417  and  _420
REMARK  157  A    between atoms: _420  and  _421
REMARK  158  A    between atoms: _426  and  _427
REMARK  159  A    between atoms: _429  and  _431
REMARK  160  A    between atoms: _431  and  _432
REMARK  161  A    between atoms: _431  and  _434
REMARK  162  A    between atoms: _434  and  _435
REMARK  163  A    between atoms: _435  and  _436
REMARK  164  A    between atoms: _436  and  _437
REMARK  165  A    between atoms: _446  and  _448
REMARK  166  A    between atoms: _448  and  _449
REMARK  167  A    between atoms: _448  and  _451
REMARK  168  A    between atoms: _451  and  _452
REMARK  169  A    between atoms: _455  and  _457
REMARK  170  A    between atoms: _457  and  _458
REMARK  171  A    between atoms: _460  and  _462
REMARK  172  A    between atoms: _462  and  _463
REMARK  173  A    between atoms: _462  and  _465
REMARK  174  A    between atoms: _465  and  _466
REMARK  175  A    between atoms: _472  and  _473
REMARK  176  A    between atoms: _478  and  _480
REMARK  177  A    between atoms: _480  and  _481
REMARK  178  A    between atoms: _483  and  _485
REMARK  179  A    between atoms: _485  and  _486
REMARK  180  A    between atoms: _485  and  _488
REMARK  181  A    between atoms: _488  and  _489
REMARK  182  A    between atoms: _495  and  _497
REMARK  183  A    between atoms: _497  and  _498
REMARK  184  A    between atoms: _497  and  _500
REMARK  185  A    between atoms: _500  and  _501
REMARK  186  A    between atoms: _506  and  _508
REMARK  187  A    between atoms: _508  and  _509
REMARK  188  A    between atoms: _508  and  _511
REMARK  189  A    between atoms: _511  and  _512
REMARK  190  A    between atoms: _512  and  _513
REMARK  191  A    between atoms: _513  and  _514
REMARK  192  A    between atoms: _514  and  ZN_788
REMARK  193  A    between atoms: _516  and  _518
REMARK  194  A    between atoms: _518  and  _519
REMARK  195  A    between atoms: _522  and  _524
REMARK  196  A    between atoms: _524  and  _525
REMARK  197  A    between atoms: _527  and  _529
REMARK  198  A    between atoms: _529  and  _530
REMARK  199  A    between atoms: _529  and  _532
REMARK  200  A    between atoms: _532  and  _533
REMARK  201  A    between atoms: _536  and  _538
REMARK  202  A    between atoms: _538  and  _539
REMARK  203  A    between atoms: _538  and  _541
REMARK  204  A    between atoms: _544  and  _546
REMARK  205  A    between atoms: _546  and  _547
REMARK  206  A    between atoms: _546  and  _549
REMARK  207  A    between atoms: _549  and  _550
REMARK  208  A    between atoms: _552  and  _554
REMARK  209  A    between atoms: _554  and  _555
REMARK  210  A    between atoms: _554  and  _557
REMARK  211  A    between atoms: _557  and  _558
REMARK  212  A    between atoms: _561  and  _563
REMARK  213  A    between atoms: _563  and  _564
REMARK  214  A    between atoms: _563  and  _566
REMARK  215  A    between atoms: _566  and  _567
REMARK  216  A    between atoms: _570  and  _572
REMARK  217  A    between atoms: _572  and  _573
REMARK  218  A    between atoms: _572  and  _575
REMARK  219  A    between atoms: _575  and  _576
REMARK  220  A    between atoms: _576  and  _577
REMARK  221  A    between atoms: _577  and  _578
REMARK  222  A    between atoms: _578  and  _579
REMARK  223  A    between atoms: _583  and  _585
REMARK  224  A    between atoms: _585  and  _586
REMARK  225  A    between atoms: _585  and  _588
REMARK  226  A    between atoms: _588  and  _589
REMARK  227  A    between atoms: _595  and  _597
REMARK  228  A    between atoms: _597  and  _598
REMARK  229  A    between atoms: _597  and  _600
REMARK  230  A    between atoms: _600  and  _601
REMARK  231  A    between atoms: _607  and  _609
REMARK  232  A    between atoms: _609  and  _610
REMARK  233  A    between atoms: _613  and  _615
REMARK  234  A    between atoms: _615  and  _616
REMARK  235  A    between atoms: _615  and  _618
REMARK  236  A    between atoms: _618  and  _619
REMARK  237  A    between atoms: _619  and  _620
REMARK  238  A    between atoms: _622  and  _624
REMARK  239  A    between atoms: _624  and  _625
REMARK  240  A    between atoms: _624  and  _627
REMARK  241  A    between atoms: _627  and  _628
REMARK  242  A    between atoms: _628  and  _629
REMARK  243  A    between atoms: _629  and  _630
REMARK  244  A    between atoms: _630  and  _631
REMARK  245  A    between atoms: _635  and  _637
REMARK  246  A    between atoms: _637  and  _638
REMARK  247  A    between atoms: _637  and  _640
REMARK  248  A    between atoms: _640  and  _641
REMARK  249  A    between atoms: _646  and  _647
REMARK  250  A    between atoms: _649  and  _651
REMARK  251  A    between atoms: _651  and  _652
REMARK  252  A    between atoms: _651  and  _654
REMARK  253  A    between atoms: _654  and  _655
REMARK  254  A    between atoms: _660  and  _662
REMARK  255  A    between atoms: _662  and  _663
REMARK  256  A    between atoms: _662  and  _665
REMARK  257  A    between atoms: _665  and  _666
REMARK  258  A    between atoms: _669  and  _671
REMARK  259  A    between atoms: _671  and  _672
REMARK  260  A    between atoms: _675  and  _677
REMARK  261  A    between atoms: _677  and  _678
REMARK  262  A    between atoms: _677  and  _680
REMARK  263  A    between atoms: _680  and  _681
REMARK  264  A    between atoms: _684  and  _686
REMARK  265  A    between atoms: _686  and  _687
REMARK  266  A    between atoms: _686  and  _689
REMARK  267  A    between atoms: _692  and  _694
REMARK  268  A    between atoms: _694  and  _695
REMARK  269  A    between atoms: _694  and  _697
REMARK  270  A    between atoms: _697  and  _698
REMARK  271  A    between atoms: _698  and  _699
REMARK  272  A    between atoms: _702  and  _704
REMARK  273  A    between atoms: _704  and  _705
REMARK  274  A    between atoms: _704  and  _707
REMARK  275  A    between atoms: _707  and  _708
REMARK  276  A    between atoms: _713  and  _714
REMARK  277  A    between atoms: _716  and  _718
REMARK  278  A    between atoms: _718  and  _719
REMARK  279  A    between atoms: _718  and  _721
REMARK  280  A    between atoms: _721  and  _722
REMARK  281  A    between atoms: _722  and  _723
REMARK  282  A    between atoms: _723  and  _724
REMARK  283  A    between atoms: _733  and  _735
REMARK  284  A    between atoms: _735  and  _736
REMARK  285  A    between atoms: _735  and  _738
REMARK  286  A    between atoms: _738  and  _739
REMARK  287  A    between atoms: _744  and  _745
REMARK  288  A    between atoms: _747  and  _749
REMARK  289  A    between atoms: _749  and  _750
REMARK  290  A    between atoms: _749  and  _752
REMARK  291  A    between atoms: _752  and  _753
REMARK  292  A    between atoms: _756  and  _758
REMARK  293  A    between atoms: _758  and  _759
REMARK  294  A    between atoms: _758  and  _761
REMARK  295  A    between atoms: _761  and  _762
REMARK  296  A    between atoms: _764  and  _766
REMARK  297  A    between atoms: _766  and  _767
REMARK  298  A    between atoms: _766  and  _769
REMARK  299  A    between atoms: _769  and  _770
REMARK  300  A    between atoms: _776  and  _778
REMARK  301  A    between atoms: _778  and  _779
REMARK  302  A    between atoms: _778  and  _781
REMARK  303  A    between atoms: _781  and  _782
REMARK  304  A    between atoms: _782  and  _783
REMARK                            x       y       z     vdW  Elec       q    Type
REMARK                         _______ _______ _______ _____ _____    ______ ____
ROOT
ATOM      1  O   HOH     1      27.181   8.235 -37.658  0.00  0.00    +0.000 OA
ENDROOT
TORSDOF 0
REMARK  Name = ../refined-set-2016/4ca8/4ca8_pocket.pdb
REMARK  304 active torsions:
REMARK  status: ('A' for Active; 'I' for Inactive)
REMARK    1  A    between atoms: _1  and  _3
REMARK    2  A    between atoms: _3  and  _4
REMARK    3  A    between atoms: _3  and  _6
REMARK    4  A    between atoms: _6  and  _7
REMARK    5  A    between atoms: _7  and  _8
REMARK    6  A    between atoms: _11  and  _13
REMARK    7  A    between atoms: _13  and  _14
REMARK    8  A    between atoms: _13  and  _16
REMARK    9  A    between atoms: _16  and  _17
REMARK   10  A    between atoms: _17  and  _18
REMARK   11  A    between atoms: _21  and  _23
REMARK   12  A    between atoms: _23  and  _24
REMARK   13  A    between atoms: _23  and  _26
REMARK   14  A    between atoms: _26  and  _27
REMARK   15  A    between atoms: _32  and  _34
REMARK   16  A    between atoms: _34  and  _35
REMARK   17  A    between atoms: _34  and  _37
REMARK   18  A    between atoms: _37  and  _38
REMARK   19  A    between atoms: _48  and  _50
REMARK   20  A    between atoms: _50  and  _51
REMARK   21  A    between atoms: _50  and  _53
REMARK   22  A    between atoms: _53  and  _54
REMARK   23  A    between atoms: _54  and  _55
REMARK   24  A    between atoms: _60  and  _62
REMARK   25  A    between atoms: _62  and  _63
REMARK   26  A    between atoms: _62  and  _65
REMARK   27  A    between atoms: _65  and  _66
REMARK   28  A    between atoms: _66  and  _67
REMARK   29  A    between atoms: _72  and  _74
REMARK   30  A    between atoms: _74  and  _75
REMARK   31  A    between atoms: _74  and  _77
REMARK   32  A    between atoms: _77  and  _78
REMARK   33  A    between atoms: _80  and  _82
REMARK   34  A    between atoms: _82  and  _83
REMARK   35  A    between atoms: _82  and  _85
REMARK   36  A    between atoms: _85  and  _86
REMARK   37  A    between atoms: _86  and  _87
REMARK   38  A    between atoms: _90  and  _92
REMARK   39  A    between atoms: _92  and  _93
REMARK   40  A    between atoms: _92  and  _95
REMARK   41  A    between atoms: _98  and  _100
REMARK   42  A    between atoms: _100  and  _101
REMARK   43  A    between atoms: _100  and  _103
REMARK   44  A    between atoms: _105  and  _107
REMARK   45  A    between atoms: _107  and  _108
REMARK   46  A    between atoms: _107  and  _110
REMARK   47  A    between atoms: _110  and  _111
REMARK   48  A    between atoms: _116  and  _118
REMARK   49  A    between atoms: _118  and  _119
REMARK   50  A    between atoms: _122  and  _124
REMARK   51  A    between atoms: _124  and  _125
REMARK   52  A    between atoms: _124  and  _127
REMARK   53  A    between atoms: _127  and  _128
REMARK   54  A    between atoms: _130  and  _132
REMARK   55  A    between atoms: _132  and  _133
REMARK   56  A    between atoms: _136  and  _138
REMARK   57  A    between atoms: _138  and  _139
REMARK   58  A    between atoms: _138  and  _141
REMARK   59  A    between atoms: _141  and  _142
REMARK   60  A    between atoms: _152  and  _154
REMARK   61  A    between atoms: _154  and  _155
REMARK   62  A    between atoms: _154  and  _157
REMARK   63  A    between atoms: _157  and  _158
REMARK   64  A    between atoms: _161  and  _163
REMARK   65  A    between atoms: _163  and  _164
REMARK   66  A    between atoms: _163  and  _166
REMARK   67  A    between atoms: _166  and  _167
REMARK   68  A    between atoms: _172  and  _173
REMARK   69  A    between atoms: _175  and  _177
REMARK   70  A    between atoms: _177  and  _178
REMARK   71  A    between atoms: _177  and  _180
REMARK   72  A    between atoms: _180  and  _181
REMARK   73  A    between atoms: _181  and  _182
REMARK   74  A    between atoms: _182  and  _183
REMARK   75  A    between atoms: _192  and  _194
REMARK   76  A    between atoms: _194  and  _195
REMARK   77  A    between atoms: _194  and  _197
REMARK   78  A    between atoms: _197  and  _198
REMARK   79  A    between atoms: _201  and  _203
REMARK   80  A    between atoms: _203  and  _204
REMARK   81  A    between atoms: _203  and  _206
REMARK   82  A    between atoms: _206  and  _207
REMARK   83  A    between atoms: _207  and  _208
REMARK   84  A    between atoms: _208  and  _209
REMARK   85  A    between atoms: _209  and  _210
REMARK   86  A    between atoms: _214  and  _216
REMARK   87  A    between atoms: _216  and  _217
REMARK   88  A    between atoms: _216  and  _219
REMARK   89  A    between atoms: _219  and  _220
REMARK   90  A    between atoms: _220  and  _221
REMARK   91  A    between atoms: _226  and  _228
REMARK   92  A    between atoms: _228  and  _229
REMARK   93  A    between atoms: _228  and  _231
REMARK   94  A    between atoms: _231  and  _232
REMARK   95  A    between atoms: _232  and  _233
REMARK   96  A    between atoms: _233  and  _234
REMARK   97  A    between atoms: _243  and  _245
REMARK   98  A    between atoms: _245  and  _246
REMARK   99  A    between atoms: _245  and  _248
REMARK  100  A    between atoms: _248  and  _249
REMARK  101  A    between atoms: _252  and  _254
REMARK  102  A    between atoms: _254  and  _255
REMARK  103  A    between atoms: _254  and  _257
REMARK  104  A    between atoms: _257  and  _258
REMARK  105  A    between atoms: _258  and  _259
REMARK  106  A    between atoms: _264  and  _266
REMARK  107  A    between atoms: _266  and  _267
REMARK  108  A    between atoms: _266  and  _269
REMARK  109  A    between atoms: _269  and  _270
REMARK  110  A    between atoms: _273  and  _275
REMARK  111  A    between atoms: _275  and  _276
REMARK  112  A    between atoms: _275  and  _278
REMARK  113  A    between atoms: _278  and  _279
REMARK  114  A    between atoms: _279  and  _280
REMARK  115  A    between atoms: _285  and  _287
REMARK  116  A    between atoms: _287  and  _288
REMARK  117  A    between atoms: _287  and  _290
REMARK  118  A    between atoms: _290  and  _291
REMARK  119  A    between atoms: _294  and  _296
REMARK  120  A    between atoms: _296  and  _297
REMARK  121  A    between atoms: _296  and  _299
REMARK  122  A    between atoms: _299  and  _300
REMARK  123  A    between atoms: _306  and  _308
REMARK  124  A    between atoms: _308  and  _309
REMARK  125  A    between atoms: _308  and  _311
REMARK  126  A    between atoms: _311  and  _312
REMARK  127  A    between atoms: _315  and  _317
REMARK  128  A    between atoms: _317  and  _318
REMARK  129  A    between atoms: _317  and  _320
REMARK  130  A    between atoms: _323  and  _325
REMARK  131  A    between atoms: _325  and  _326
REMARK  132  A    between atoms: _325  and  _328
REMARK  133  A    between atoms: _328  and  _329
REMARK  134  A    between atoms: _334  and  _336
REMARK  135  A    between atoms: _347  and  _350
REMARK  136  A    between atoms: _350  and  _351
REMARK  137  A    between atoms: _351  and  _352
REMARK  138  A    between atoms: _357  and  _360
REMARK  139  A    between atoms: _360  and  _361
REMARK  140  A    between atoms: _371  and  _372
REMARK  141  A    between atoms: _380  and  _382
REMARK  142  A    between atoms: _382  and  _383
REMARK  143  A    between atoms: _382  and  _385
REMARK  144  A    between atoms: _385  and  _386
REMARK  145  A    between atoms: _389  and  _391
REMARK  146  A    between atoms: _391  and  _392
REMARK  147  A    between atoms: _391  and  _394
REMARK  148  A    between atoms: _394  and  _395
REMARK  149  A    between atoms: _400  and  _401
REMARK  150  A    between atoms: _403  and  _405
REMARK  151  A    between atoms: _405  and  _406
REMARK  152  A    between atoms: _405  and  _408
REMARK  153  A    between atoms: _408  and  _409
REMARK  154  A    between atoms: _415  and  _417
REMARK  155  A    between atoms: _417  and  _418
REMARK  156  A    between atoms: _417  and  _420
REMARK  157  A    between atoms: _420  and  _421
REMARK  158  A    between atoms: _426  and  _427
REMARK  159  A    between atoms: _429  and  _431
REMARK  160  A    between atoms: _431  and  _432
REMARK  161  A    between atoms: _431  and  _434
REMARK  162  A    between atoms: _434  and  _435
REMARK  163  A    between atoms: _435  and  _436
REMARK  164  A    between atoms: _436  and  _437
REMARK  165  A    between atoms: _446  and  _448
REMARK  166  A    between atoms: _448  and  _449
REMARK  167  A    between atoms: _448  and  _451
REMARK  168  A    between atoms: _451  and  _452
REMARK  169  A    between atoms: _455  and  _457
REMARK  170  A    between atoms: _457  and  _458
REMARK  171  A    between atoms: _460  and  _462
REMARK  172  A    between atoms: _462  and  _463
REMARK  173  A    between atoms: _462  and  _465
REMARK  174  A    between atoms: _465  and  _466
REMARK  175  A    between atoms: _472  and  _473
REMARK  176  A    between atoms: _478  and  _480
REMARK  177  A    between atoms: _480  and  _481
REMARK  178  A    between atoms: _483  and  _485
REMARK  179  A    between atoms: _485  and  _486
REMARK  180  A    between atoms: _485  and  _488
REMARK  181  A    between atoms: _488  and  _489
REMARK  182  A    between atoms: _495  and  _497
REMARK  183  A    between atoms: _497  and  _498
REMARK  184  A    between atoms: _497  and  _500
REMARK  185  A    between atoms: _500  and  _501
REMARK  186  A    between atoms: _506  and  _508
REMARK  187  A    between atoms: _508  and  _509
REMARK  188  A    between atoms: _508  and  _511
REMARK  189  A    between atoms: _511  and  _512
REMARK  190  A    between atoms: _512  and  _513
REMARK  191  A    between atoms: _513  and  _514
REMARK  192  A    between atoms: _514  and  ZN_788
REMARK  193  A    between atoms: _516  and  _518
REMARK  194  A    between atoms: _518  and  _519
REMARK  195  A    between atoms: _522  and  _524
REMARK  196  A    between atoms: _524  and  _525
REMARK  197  A    between atoms: _527  and  _529
REMARK  198  A    between atoms: _529  and  _530
REMARK  199  A    between atoms: _529  and  _532
REMARK  200  A    between atoms: _532  and  _533
REMARK  201  A    between atoms: _536  and  _538
REMARK  202  A    between atoms: _538  and  _539
REMARK  203  A    between atoms: _538  and  _541
REMARK  204  A    between atoms: _544  and  _546
REMARK  205  A    between atoms: _546  and  _547
REMARK  206  A    between atoms: _546  and  _549
REMARK  207  A    between atoms: _549  and  _550
REMARK  208  A    between atoms: _552  and  _554
REMARK  209  A    between atoms: _554  and  _555
REMARK  210  A    between atoms: _554  and  _557
REMARK  211  A    between atoms: _557  and  _558
REMARK  212  A    between atoms: _561  and  _563
REMARK  213  A    between atoms: _563  and  _564
REMARK  214  A    between atoms: _563  and  _566
REMARK  215  A    between atoms: _566  and  _567
REMARK  216  A    between atoms: _570  and  _572
REMARK  217  A    between atoms: _572  and  _573
REMARK  218  A    between atoms: _572  and  _575
REMARK  219  A    between atoms: _575  and  _576
REMARK  220  A    between atoms: _576  and  _577
REMARK  221  A    between atoms: _577  and  _578
REMARK  222  A    between atoms: _578  and  _579
REMARK  223  A    between atoms: _583  and  _585
REMARK  224  A    between atoms: _585  and  _586
REMARK  225  A    between atoms: _585  and  _588
REMARK  226  A    between atoms: _588  and  _589
REMARK  227  A    between atoms: _595  and  _597
REMARK  228  A    between atoms: _597  and  _598
REMARK  229  A    between atoms: _597  and  _600
REMARK  230  A    between atoms: _600  and  _601
REMARK  231  A    between atoms: _607  and  _609
REMARK  232  A    between atoms: _609  and  _610
REMARK  233  A    between atoms: _613  and  _615
REMARK  234  A    between atoms: _615  and  _616
REMARK  235  A    between atoms: _615  and  _618
REMARK  236  A    between atoms: _618  and  _619
REMARK  237  A    between atoms: _619  and  _620
REMARK  238  A    between atoms: _622  and  _624
REMARK  239  A    between atoms: _624  and  _625
REMARK  240  A    between atoms: _624  and  _627
REMARK  241  A    between atoms: _627  and  _628
REMARK  242  A    between atoms: _628  and  _629
REMARK  243  A    between atoms: _629  and  _630
REMARK  244  A    between atoms: _630  and  _631
REMARK  245  A    between atoms: _635  and  _637
REMARK  246  A    between atoms: _637  and  _638
REMARK  247  A    between atoms: _637  and  _640
REMARK  248  A    between atoms: _640  and  _641
REMARK  249  A    between atoms: _646  and  _647
REMARK  250  A    between atoms: _649  and  _651
REMARK  251  A    between atoms: _651  and  _652
REMARK  252  A    between atoms: _651  and  _654
REMARK  253  A    between atoms: _654  and  _655
REMARK  254  A    between atoms: _660  and  _662
REMARK  255  A    between atoms: _662  and  _663
REMARK  256  A    between atoms: _662  and  _665
REMARK  257  A    between atoms: _665  and  _666
REMARK  258  A    between atoms: _669  and  _671
REMARK  259  A    between atoms: _671  and  _672
REMARK  260  A    between atoms: _675  and  _677
REMARK  261  A    between atoms: _677  and  _678
REMARK  262  A    between atoms: _677  and  _680
REMARK  263  A    between atoms: _680  and  _681
REMARK  264  A    between atoms: _684  and  _686
REMARK  265  A    between atoms: _686  and  _687
REMARK  266  A    between atoms: _686  and  _689
REMARK  267  A    between atoms: _692  and  _694
REMARK  268  A    between atoms: _694  and  _695
REMARK  269  A    between atoms: _694  and  _697
REMARK  270  A    between atoms: _697  and  _698
REMARK  271  A    between atoms: _698  and  _699
REMARK  272  A    between atoms: _702  and  _704
REMARK  273  A    between atoms: _704  and  _705
REMARK  274  A    between atoms: _704  and  _707
REMARK  275  A    between atoms: _707  and  _708
REMARK  276  A    between atoms: _713  and  _714
REMARK  277  A    between atoms: _716  and  _718
REMARK  278  A    between atoms: _718  and  _719
REMARK  279  A    between atoms: _718  and  _721
REMARK  280  A    between atoms: _721  and  _722
REMARK  281  A    between atoms: _722  and  _723
REMARK  282  A    between atoms: _723  and  _724
REMARK  283  A    between atoms: _733  and  _735
REMARK  284  A    between atoms: _735  and  _736
REMARK  285  A    between atoms: _735  and  _738
REMARK  286  A    between atoms: _738  and  _739
REMARK  287  A    between atoms: _744  and  _745
REMARK  288  A    between atoms: _747  and  _749
REMARK  289  A    between atoms: _749  and  _750
REMARK  290  A    between atoms: _749  and  _752
REMARK  291  A    between atoms: _752  and  _753
REMARK  292  A    between atoms: _756  and  _758
REMARK  293  A    between atoms: _758  and  _759
REMARK  294  A    between atoms: _758  and  _761
REMARK  295  A    between atoms: _761  and  _762
REMARK  296  A    between atoms: _764  and  _766
REMARK  297  A    between atoms: _766  and  _767
REMARK  298  A    between atoms: _766  and  _769
REMARK  299  A    between atoms: _769  and  _770
REMARK  300  A    between atoms: _776  and  _778
REMARK  301  A    between atoms: _778  and  _779
REMARK  302  A    between atoms: _778  and  _781
REMARK  303  A    between atoms: _781  and  _782
REMARK  304  A    between atoms: _782  and  _783
REMARK                            x       y       z     vdW  Elec       q    Type
REMARK                         _______ _______ _______ _____ _____    ______ ____
ROOT
ATOM      1  O   HOH     1      26.734   4.120 -34.098  0.00  0.00    +0.000 OA
ENDROOT
TORSDOF 0
REMARK  Name = ../refined-set-2016/4ca8/4ca8_pocket.pdb
REMARK  304 active torsions:
REMARK  status: ('A' for Active; 'I' for Inactive)
REMARK    1  A    between atoms: _1  and  _3
REMARK    2  A    between atoms: _3  and  _4
REMARK    3  A    between atoms: _3  and  _6
REMARK    4  A    between atoms: _6  and  _7
REMARK    5  A    between atoms: _7  and  _8
REMARK    6  A    between atoms: _11  and  _13
REMARK    7  A    between atoms: _13  and  _14
REMARK    8  A    between atoms: _13  and  _16
REMARK    9  A    between atoms: _16  and  _17
REMARK   10  A    between atoms: _17  and  _18
REMARK   11  A    between atoms: _21  and  _23
REMARK   12  A    between atoms: _23  and  _24
REMARK   13  A    between atoms: _23  and  _26
REMARK   14  A    between atoms: _26  and  _27
REMARK   15  A    between atoms: _32  and  _34
REMARK   16  A    between atoms: _34  and  _35
REMARK   17  A    between atoms: _34  and  _37
REMARK   18  A    between atoms: _37  and  _38
REMARK   19  A    between atoms: _48  and  _50
REMARK   20  A    between atoms: _50  and  _51
REMARK   21  A    between atoms: _50  and  _53
REMARK   22  A    between atoms: _53  and  _54
REMARK   23  A    between atoms: _54  and  _55
REMARK   24  A    between atoms: _60  and  _62
REMARK   25  A    between atoms: _62  and  _63
REMARK   26  A    between atoms: _62  and  _65
REMARK   27  A    between atoms: _65  and  _66
REMARK   28  A    between atoms: _66  and  _67
REMARK   29  A    between atoms: _72  and  _74
REMARK   30  A    between atoms: _74  and  _75
REMARK   31  A    between atoms: _74  and  _77
REMARK   32  A    between atoms: _77  and  _78
REMARK   33  A    between atoms: _80  and  _82
REMARK   34  A    between atoms: _82  and  _83
REMARK   35  A    between atoms: _82  and  _85
REMARK   36  A    between atoms: _85  and  _86
REMARK   37  A    between atoms: _86  and  _87
REMARK   38  A    between atoms: _90  and  _92
REMARK   39  A    between atoms: _92  and  _93
REMARK   40  A    between atoms: _92  and  _95
REMARK   41  A    between atoms: _98  and  _100
REMARK   42  A    between atoms: _100  and  _101
REMARK   43  A    between atoms: _100  and  _103
REMARK   44  A    between atoms: _105  and  _107
REMARK   45  A    between atoms: _107  and  _108
REMARK   46  A    between atoms: _107  and  _110
REMARK   47  A    between atoms: _110  and  _111
REMARK   48  A    between atoms: _116  and  _118
REMARK   49  A    between atoms: _118  and  _119
REMARK   50  A    between atoms: _122  and  _124
REMARK   51  A    between atoms: _124  and  _125
REMARK   52  A    between atoms: _124  and  _127
REMARK   53  A    between atoms: _127  and  _128
REMARK   54  A    between atoms: _130  and  _132
REMARK   55  A    between atoms: _132  and  _133
REMARK   56  A    between atoms: _136  and  _138
REMARK   57  A    between atoms: _138  and  _139
REMARK   58  A    between atoms: _138  and  _141
REMARK   59  A    between atoms: _141  and  _142
REMARK   60  A    between atoms: _152  and  _154
REMARK   61  A    between atoms: _154  and  _155
REMARK   62  A    between atoms: _154  and  _157
REMARK   63  A    between atoms: _157  and  _158
REMARK   64  A    between atoms: _161  and  _163
REMARK   65  A    between atoms: _163  and  _164
REMARK   66  A    between atoms: _163  and  _166
REMARK   67  A    between atoms: _166  and  _167
REMARK   68  A    between atoms: _172  and  _173
REMARK   69  A    between atoms: _175  and  _177
REMARK   70  A    between atoms: _177  and  _178
REMARK   71  A    between atoms: _177  and  _180
REMARK   72  A    between atoms: _180  and  _181
REMARK   73  A    between atoms: _181  and  _182
REMARK   74  A    between atoms: _182  and  _183
REMARK   75  A    between atoms: _192  and  _194
REMARK   76  A    between atoms: _194  and  _195
REMARK   77  A    between atoms: _194  and  _197
REMARK   78  A    between atoms: _197  and  _198
REMARK   79  A    between atoms: _201  and  _203
REMARK   80  A    between atoms: _203  and  _204
REMARK   81  A    between atoms: _203  and  _206
REMARK   82  A    between atoms: _206  and  _207
REMARK   83  A    between atoms: _207  and  _208
REMARK   84  A    between atoms: _208  and  _209
REMARK   85  A    between atoms: _209  and  _210
REMARK   86  A    between atoms: _214  and  _216
REMARK   87  A    between atoms: _216  and  _217
REMARK   88  A    between atoms: _216  and  _219
REMARK   89  A    between atoms: _219  and  _220
REMARK   90  A    between atoms: _220  and  _221
REMARK   91  A    between atoms: _226  and  _228
REMARK   92  A    between atoms: _228  and  _229
REMARK   93  A    between atoms: _228  and  _231
REMARK   94  A    between atoms: _231  and  _232
REMARK   95  A    between atoms: _232  and  _233
REMARK   96  A    between atoms: _233  and  _234
REMARK   97  A    between atoms: _243  and  _245
REMARK   98  A    between atoms: _245  and  _246
REMARK   99  A    between atoms: _245  and  _248
REMARK  100  A    between atoms: _248  and  _249
REMARK  101  A    between atoms: _252  and  _254
REMARK  102  A    between atoms: _254  and  _255
REMARK  103  A    between atoms: _254  and  _257
REMARK  104  A    between atoms: _257  and  _258
REMARK  105  A    between atoms: _258  and  _259
REMARK  106  A    between atoms: _264  and  _266
REMARK  107  A    between atoms: _266  and  _267
REMARK  108  A    between atoms: _266  and  _269
REMARK  109  A    between atoms: _269  and  _270
REMARK  110  A    between atoms: _273  and  _275
REMARK  111  A    between atoms: _275  and  _276
REMARK  112  A    between atoms: _275  and  _278
REMARK  113  A    between atoms: _278  and  _279
REMARK  114  A    between atoms: _279  and  _280
REMARK  115  A    between atoms: _285  and  _287
REMARK  116  A    between atoms: _287  and  _288
REMARK  117  A    between atoms: _287  and  _290
REMARK  118  A    between atoms: _290  and  _291
REMARK  119  A    between atoms: _294  and  _296
REMARK  120  A    between atoms: _296  and  _297
REMARK  121  A    between atoms: _296  and  _299
REMARK  122  A    between atoms: _299  and  _300
REMARK  123  A    between atoms: _306  and  _308
REMARK  124  A    between atoms: _308  and  _309
REMARK  125  A    between atoms: _308  and  _311
REMARK  126  A    between atoms: _311  and  _312
REMARK  127  A    between atoms: _315  and  _317
REMARK  128  A    between atoms: _317  and  _318
REMARK  129  A    between atoms: _317  and  _320
REMARK  130  A    between atoms: _323  and  _325
REMARK  131  A    between atoms: _325  and  _326
REMARK  132  A    between atoms: _325  and  _328
REMARK  133  A    between atoms: _328  and  _329
REMARK  134  A    between atoms: _334  and  _336
REMARK  135  A    between atoms: _347  and  _350
REMARK  136  A    between atoms: _350  and  _351
REMARK  137  A    between atoms: _351  and  _352
REMARK  138  A    between atoms: _357  and  _360
REMARK  139  A    between atoms: _360  and  _361
REMARK  140  A    between atoms: _371  and  _372
REMARK  141  A    between atoms: _380  and  _382
REMARK  142  A    between atoms: _382  and  _383
REMARK  143  A    between atoms: _382  and  _385
REMARK  144  A    between atoms: _385  and  _386
REMARK  145  A    between atoms: _389  and  _391
REMARK  146  A    between atoms: _391  and  _392
REMARK  147  A    between atoms: _391  and  _394
REMARK  148  A    between atoms: _394  and  _395
REMARK  149  A    between atoms: _400  and  _401
REMARK  150  A    between atoms: _403  and  _405
REMARK  151  A    between atoms: _405  and  _406
REMARK  152  A    between atoms: _405  and  _408
REMARK  153  A    between atoms: _408  and  _409
REMARK  154  A    between atoms: _415  and  _417
REMARK  155  A    between atoms: _417  and  _418
REMARK  156  A    between atoms: _417  and  _420
REMARK  157  A    between atoms: _420  and  _421
REMARK  158  A    between atoms: _426  and  _427
REMARK  159  A    between atoms: _429  and  _431
REMARK  160  A    between atoms: _431  and  _432
REMARK  161  A    between atoms: _431  and  _434
REMARK  162  A    between atoms: _434  and  _435
REMARK  163  A    between atoms: _435  and  _436
REMARK  164  A    between atoms: _436  and  _437
REMARK  165  A    between atoms: _446  and  _448
REMARK  166  A    between atoms: _448  and  _449
REMARK  167  A    between atoms: _448  and  _451
REMARK  168  A    between atoms: _451  and  _452
REMARK  169  A    between atoms: _455  and  _457
REMARK  170  A    between atoms: _457  and  _458
REMARK  171  A    between atoms: _460  and  _462
REMARK  172  A    between atoms: _462  and  _463
REMARK  173  A    between atoms: _462  and  _465
REMARK  174  A    between atoms: _465  and  _466
REMARK  175  A    between atoms: _472  and  _473
REMARK  176  A    between atoms: _478  and  _480
REMARK  177  A    between atoms: _480  and  _481
REMARK  178  A    between atoms: _483  and  _485
REMARK  179  A    between atoms: _485  and  _486
REMARK  180  A    between atoms: _485  and  _488
REMARK  181  A    between atoms: _488  and  _489
REMARK  182  A    between atoms: _495  and  _497
REMARK  183  A    between atoms: _497  and  _498
REMARK  184  A    between atoms: _497  and  _500
REMARK  185  A    between atoms: _500  and  _501
REMARK  186  A    between atoms: _506  and  _508
REMARK  187  A    between atoms: _508  and  _509
REMARK  188  A    between atoms: _508  and  _511
REMARK  189  A    between atoms: _511  and  _512
REMARK  190  A    between atoms: _512  and  _513
REMARK  191  A    between atoms: _513  and  _514
REMARK  192  A    between atoms: _514  and  ZN_788
REMARK  193  A    between atoms: _516  and  _518
REMARK  194  A    between atoms: _518  and  _519
REMARK  195  A    between atoms: _522  and  _524
REMARK  196  A    between atoms: _524  and  _525
REMARK  197  A    between atoms: _527  and  _529
REMARK  198  A    between atoms: _529  and  _530
REMARK  199  A    between atoms: _529  and  _532
REMARK  200  A    between atoms: _532  and  _533
REMARK  201  A    between atoms: _536  and  _538
REMARK  202  A    between atoms: _538  and  _539
REMARK  203  A    between atoms: _538  and  _541
REMARK  204  A    between atoms: _544  and  _546
REMARK  205  A    between atoms: _546  and  _547
REMARK  206  A    between atoms: _546  and  _549
REMARK  207  A    between atoms: _549  and  _550
REMARK  208  A    between atoms: _552  and  _554
REMARK  209  A    between atoms: _554  and  _555
REMARK  210  A    between atoms: _554  and  _557
REMARK  211  A    between atoms: _557  and  _558
REMARK  212  A    between atoms: _561  and  _563
REMARK  213  A    between atoms: _563  and  _564
REMARK  214  A    between atoms: _563  and  _566
REMARK  215  A    between atoms: _566  and  _567
REMARK  216  A    between atoms: _570  and  _572
REMARK  217  A    between atoms: _572  and  _573
REMARK  218  A    between atoms: _572  and  _575
REMARK  219  A    between atoms: _575  and  _576
REMARK  220  A    between atoms: _576  and  _577
REMARK  221  A    between atoms: _577  and  _578
REMARK  222  A    between atoms: _578  and  _579
REMARK  223  A    between atoms: _583  and  _585
REMARK  224  A    between atoms: _585  and  _586
REMARK  225  A    between atoms: _585  and  _588
REMARK  226  A    between atoms: _588  and  _589
REMARK  227  A    between atoms: _595  and  _597
REMARK  228  A    between atoms: _597  and  _598
REMARK  229  A    between atoms: _597  and  _600
REMARK  230  A    between atoms: _600  and  _601
REMARK  231  A    between atoms: _607  and  _609
REMARK  232  A    between atoms: _609  and  _610
REMARK  233  A    between atoms: _613  and  _615
REMARK  234  A    between atoms: _615  and  _616
REMARK  235  A    between atoms: _615  and  _618
REMARK  236  A    between atoms: _618  and  _619
REMARK  237  A    between atoms: _619  and  _620
REMARK  238  A    between atoms: _622  and  _624
REMARK  239  A    between atoms: _624  and  _625
REMARK  240  A    between atoms: _624  and  _627
REMARK  241  A    between atoms: _627  and  _628
REMARK  242  A    between atoms: _628  and  _629
REMARK  243  A    between atoms: _629  and  _630
REMARK  244  A    between atoms: _630  and  _631
REMARK  245  A    between atoms: _635  and  _637
REMARK  246  A    between atoms: _637  and  _638
REMARK  247  A    between atoms: _637  and  _640
REMARK  248  A    between atoms: _640  and  _641
REMARK  249  A    between atoms: _646  and  _647
REMARK  250  A    between atoms: _649  and  _651
REMARK  251  A    between atoms: _651  and  _652
REMARK  252  A    between atoms: _651  and  _654
REMARK  253  A    between atoms: _654  and  _655
REMARK  254  A    between atoms: _660  and  _662
REMARK  255  A    between atoms: _662  and  _663
REMARK  256  A    between atoms: _662  and  _665
REMARK  257  A    between atoms: _665  and  _666
REMARK  258  A    between atoms: _669  and  _671
REMARK  259  A    between atoms: _671  and  _672
REMARK  260  A    between atoms: _675  and  _677
REMARK  261  A    between atoms: _677  and  _678
REMARK  262  A    between atoms: _677  and  _680
REMARK  263  A    between atoms: _680  and  _681
REMARK  264  A    between atoms: _684  and  _686
REMARK  265  A    between atoms: _686  and  _687
REMARK  266  A    between atoms: _686  and  _689
REMARK  267  A    between atoms: _692  and  _694
REMARK  268  A    between atoms: _694  and  _695
REMARK  269  A    between atoms: _694  and  _697
REMARK  270  A    between atoms: _697  and  _698
REMARK  271  A    between atoms: _698  and  _699
REMARK  272  A    between atoms: _702  and  _704
REMARK  273  A    between atoms: _704  and  _705
REMARK  274  A    between atoms: _704  and  _707
REMARK  275  A    between atoms: _707  and  _708
REMARK  276  A    between atoms: _713  and  _714
REMARK  277  A    between atoms: _716  and  _718
REMARK  278  A    between atoms: _718  and  _719
REMARK  279  A    between atoms: _718  and  _721
REMARK  280  A    between atoms: _721  and  _722
REMARK  281  A    between atoms: _722  and  _723
REMARK  282  A    between atoms: _723  and  _724
REMARK  283  A    between atoms: _733  and  _735
REMARK  284  A    between atoms: _735  and  _736
REMARK  285  A    between atoms: _735  and  _738
REMARK  286  A    between atoms: _738  and  _739
REMARK  287  A    between atoms: _744  and  _745
REMARK  288  A    between atoms: _747  and  _749
REMARK  289  A    between atoms: _749  and  _750
REMARK  290  A    between atoms: _749  and  _752
REMARK  291  A    between atoms: _752  and  _753
REMARK  292  A    between atoms: _756  and  _758
REMARK  293  A    between atoms: _758  and  _759
REMARK  294  A    between atoms: _758  and  _761
REMARK  295  A    between atoms: _761  and  _762
REMARK  296  A    between atoms: _764  and  _766
REMARK  297  A    between atoms: _766  and  _767
REMARK  298  A    between atoms: _766  and  _769
REMARK  299  A    between atoms: _769  and  _770
REMARK  300  A    between atoms: _776  and  _778
REMARK  301  A    between atoms: _778  and  _779
REMARK  302  A    between atoms: _778  and  _781
REMARK  303  A    between atoms: _781  and  _782
REMARK  304  A    between atoms: _782  and  _783
REMARK                            x       y       z     vdW  Elec       q    Type
REMARK                         _______ _______ _______ _____ _____    ______ ____
ROOT
ATOM      1  O   HOH     1      32.074  12.407 -32.768  0.00  0.00    +0.000 OA
ENDROOT
TORSDOF 0
REMARK  Name = ../refined-set-2016/4ca8/4ca8_pocket.pdb
REMARK  304 active torsions:
REMARK  status: ('A' for Active; 'I' for Inactive)
REMARK    1  A    between atoms: _1  and  _3
REMARK    2  A    between atoms: _3  and  _4
REMARK    3  A    between atoms: _3  and  _6
REMARK    4  A    between atoms: _6  and  _7
REMARK    5  A    between atoms: _7  and  _8
REMARK    6  A    between atoms: _11  and  _13
REMARK    7  A    between atoms: _13  and  _14
REMARK    8  A    between atoms: _13  and  _16
REMARK    9  A    between atoms: _16  and  _17
REMARK   10  A    between atoms: _17  and  _18
REMARK   11  A    between atoms: _21  and  _23
REMARK   12  A    between atoms: _23  and  _24
REMARK   13  A    between atoms: _23  and  _26
REMARK   14  A    between atoms: _26  and  _27
REMARK   15  A    between atoms: _32  and  _34
REMARK   16  A    between atoms: _34  and  _35
REMARK   17  A    between atoms: _34  and  _37
REMARK   18  A    between atoms: _37  and  _38
REMARK   19  A    between atoms: _48  and  _50
REMARK   20  A    between atoms: _50  and  _51
REMARK   21  A    between atoms: _50  and  _53
REMARK   22  A    between atoms: _53  and  _54
REMARK   23  A    between atoms: _54  and  _55
REMARK   24  A    between atoms: _60  and  _62
REMARK   25  A    between atoms: _62  and  _63
REMARK   26  A    between atoms: _62  and  _65
REMARK   27  A    between atoms: _65  and  _66
REMARK   28  A    between atoms: _66  and  _67
REMARK   29  A    between atoms: _72  and  _74
REMARK   30  A    between atoms: _74  and  _75
REMARK   31  A    between atoms: _74  and  _77
REMARK   32  A    between atoms: _77  and  _78
REMARK   33  A    between atoms: _80  and  _82
REMARK   34  A    between atoms: _82  and  _83
REMARK   35  A    between atoms: _82  and  _85
REMARK   36  A    between atoms: _85  and  _86
REMARK   37  A    between atoms: _86  and  _87
REMARK   38  A    between atoms: _90  and  _92
REMARK   39  A    between atoms: _92  and  _93
REMARK   40  A    between atoms: _92  and  _95
REMARK   41  A    between atoms: _98  and  _100
REMARK   42  A    between atoms: _100  and  _101
REMARK   43  A    between atoms: _100  and  _103
REMARK   44  A    between atoms: _105  and  _107
REMARK   45  A    between atoms: _107  and  _108
REMARK   46  A    between atoms: _107  and  _110
REMARK   47  A    between atoms: _110  and  _111
REMARK   48  A    between atoms: _116  and  _118
REMARK   49  A    between atoms: _118  and  _119
REMARK   50  A    between atoms: _122  and  _124
REMARK   51  A    between atoms: _124  and  _125
REMARK   52  A    between atoms: _124  and  _127
REMARK   53  A    between atoms: _127  and  _128
REMARK   54  A    between atoms: _130  and  _132
REMARK   55  A    between atoms: _132  and  _133
REMARK   56  A    between atoms: _136  and  _138
REMARK   57  A    between atoms: _138  and  _139
REMARK   58  A    between atoms: _138  and  _141
REMARK   59  A    between atoms: _141  and  _142
REMARK   60  A    between atoms: _152  and  _154
REMARK   61  A    between atoms: _154  and  _155
REMARK   62  A    between atoms: _154  and  _157
REMARK   63  A    between atoms: _157  and  _158
REMARK   64  A    between atoms: _161  and  _163
REMARK   65  A    between atoms: _163  and  _164
REMARK   66  A    between atoms: _163  and  _166
REMARK   67  A    between atoms: _166  and  _167
REMARK   68  A    between atoms: _172  and  _173
REMARK   69  A    between atoms: _175  and  _177
REMARK   70  A    between atoms: _177  and  _178
REMARK   71  A    between atoms: _177  and  _180
REMARK   72  A    between atoms: _180  and  _181
REMARK   73  A    between atoms: _181  and  _182
REMARK   74  A    between atoms: _182  and  _183
REMARK   75  A    between atoms: _192  and  _194
REMARK   76  A    between atoms: _194  and  _195
REMARK   77  A    between atoms: _194  and  _197
REMARK   78  A    between atoms: _197  and  _198
REMARK   79  A    between atoms: _201  and  _203
REMARK   80  A    between atoms: _203  and  _204
REMARK   81  A    between atoms: _203  and  _206
REMARK   82  A    between atoms: _206  and  _207
REMARK   83  A    between atoms: _207  and  _208
REMARK   84  A    between atoms: _208  and  _209
REMARK   85  A    between atoms: _209  and  _210
REMARK   86  A    between atoms: _214  and  _216
REMARK   87  A    between atoms: _216  and  _217
REMARK   88  A    between atoms: _216  and  _219
REMARK   89  A    between atoms: _219  and  _220
REMARK   90  A    between atoms: _220  and  _221
REMARK   91  A    between atoms: _226  and  _228
REMARK   92  A    between atoms: _228  and  _229
REMARK   93  A    between atoms: _228  and  _231
REMARK   94  A    between atoms: _231  and  _232
REMARK   95  A    between atoms: _232  and  _233
REMARK   96  A    between atoms: _233  and  _234
REMARK   97  A    between atoms: _243  and  _245
REMARK   98  A    between atoms: _245  and  _246
REMARK   99  A    between atoms: _245  and  _248
REMARK  100  A    between atoms: _248  and  _249
REMARK  101  A    between atoms: _252  and  _254
REMARK  102  A    between atoms: _254  and  _255
REMARK  103  A    between atoms: _254  and  _257
REMARK  104  A    between atoms: _257  and  _258
REMARK  105  A    between atoms: _258  and  _259
REMARK  106  A    between atoms: _264  and  _266
REMARK  107  A    between atoms: _266  and  _267
REMARK  108  A    between atoms: _266  and  _269
REMARK  109  A    between atoms: _269  and  _270
REMARK  110  A    between atoms: _273  and  _275
REMARK  111  A    between atoms: _275  and  _276
REMARK  112  A    between atoms: _275  and  _278
REMARK  113  A    between atoms: _278  and  _279
REMARK  114  A    between atoms: _279  and  _280
REMARK  115  A    between atoms: _285  and  _287
REMARK  116  A    between atoms: _287  and  _288
REMARK  117  A    between atoms: _287  and  _290
REMARK  118  A    between atoms: _290  and  _291
REMARK  119  A    between atoms: _294  and  _296
REMARK  120  A    between atoms: _296  and  _297
REMARK  121  A    between atoms: _296  and  _299
REMARK  122  A    between atoms: _299  and  _300
REMARK  123  A    between atoms: _306  and  _308
REMARK  124  A    between atoms: _308  and  _309
REMARK  125  A    between atoms: _308  and  _311
REMARK  126  A    between atoms: _311  and  _312
REMARK  127  A    between atoms: _315  and  _317
REMARK  128  A    between atoms: _317  and  _318
REMARK  129  A    between atoms: _317  and  _320
REMARK  130  A    between atoms: _323  and  _325
REMARK  131  A    between atoms: _325  and  _326
REMARK  132  A    between atoms: _325  and  _328
REMARK  133  A    between atoms: _328  and  _329
REMARK  134  A    between atoms: _334  and  _336
REMARK  135  A    between atoms: _347  and  _350
REMARK  136  A    between atoms: _350  and  _351
REMARK  137  A    between atoms: _351  and  _352
REMARK  138  A    between atoms: _357  and  _360
REMARK  139  A    between atoms: _360  and  _361
REMARK  140  A    between atoms: _371  and  _372
REMARK  141  A    between atoms: _380  and  _382
REMARK  142  A    between atoms: _382  and  _383
REMARK  143  A    between atoms: _382  and  _385
REMARK  144  A    between atoms: _385  and  _386
REMARK  145  A    between atoms: _389  and  _391
REMARK  146  A    between atoms: _391  and  _392
REMARK  147  A    between atoms: _391  and  _394
REMARK  148  A    between atoms: _394  and  _395
REMARK  149  A    between atoms: _400  and  _401
REMARK  150  A    between atoms: _403  and  _405
REMARK  151  A    between atoms: _405  and  _406
REMARK  152  A    between atoms: _405  and  _408
REMARK  153  A    between atoms: _408  and  _409
REMARK  154  A    between atoms: _415  and  _417
REMARK  155  A    between atoms: _417  and  _418
REMARK  156  A    between atoms: _417  and  _420
REMARK  157  A    between atoms: _420  and  _421
REMARK  158  A    between atoms: _426  and  _427
REMARK  159  A    between atoms: _429  and  _431
REMARK  160  A    between atoms: _431  and  _432
REMARK  161  A    between atoms: _431  and  _434
REMARK  162  A    between atoms: _434  and  _435
REMARK  163  A    between atoms: _435  and  _436
REMARK  164  A    between atoms: _436  and  _437
REMARK  165  A    between atoms: _446  and  _448
REMARK  166  A    between atoms: _448  and  _449
REMARK  167  A    between atoms: _448  and  _451
REMARK  168  A    between atoms: _451  and  _452
REMARK  169  A    between atoms: _455  and  _457
REMARK  170  A    between atoms: _457  and  _458
REMARK  171  A    between atoms: _460  and  _462
REMARK  172  A    between atoms: _462  and  _463
REMARK  173  A    between atoms: _462  and  _465
REMARK  174  A    between atoms: _465  and  _466
REMARK  175  A    between atoms: _472  and  _473
REMARK  176  A    between atoms: _478  and  _480
REMARK  177  A    between atoms: _480  and  _481
REMARK  178  A    between atoms: _483  and  _485
REMARK  179  A    between atoms: _485  and  _486
REMARK  180  A    between atoms: _485  and  _488
REMARK  181  A    between atoms: _488  and  _489
REMARK  182  A    between atoms: _495  and  _497
REMARK  183  A    between atoms: _497  and  _498
REMARK  184  A    between atoms: _497  and  _500
REMARK  185  A    between atoms: _500  and  _501
REMARK  186  A    between atoms: _506  and  _508
REMARK  187  A    between atoms: _508  and  _509
REMARK  188  A    between atoms: _508  and  _511
REMARK  189  A    between atoms: _511  and  _512
REMARK  190  A    between atoms: _512  and  _513
REMARK  191  A    between atoms: _513  and  _514
REMARK  192  A    between atoms: _514  and  ZN_788
REMARK  193  A    between atoms: _516  and  _518
REMARK  194  A    between atoms: _518  and  _519
REMARK  195  A    between atoms: _522  and  _524
REMARK  196  A    between atoms: _524  and  _525
REMARK  197  A    between atoms: _527  and  _529
REMARK  198  A    between atoms: _529  and  _530
REMARK  199  A    between atoms: _529  and  _532
REMARK  200  A    between atoms: _532  and  _533
REMARK  201  A    between atoms: _536  and  _538
REMARK  202  A    between atoms: _538  and  _539
REMARK  203  A    between atoms: _538  and  _541
REMARK  204  A    between atoms: _544  and  _546
REMARK  205  A    between atoms: _546  and  _547
REMARK  206  A    between atoms: _546  and  _549
REMARK  207  A    between atoms: _549  and  _550
REMARK  208  A    between atoms: _552  and  _554
REMARK  209  A    between atoms: _554  and  _555
REMARK  210  A    between atoms: _554  and  _557
REMARK  211  A    between atoms: _557  and  _558
REMARK  212  A    between atoms: _561  and  _563
REMARK  213  A    between atoms: _563  and  _564
REMARK  214  A    between atoms: _563  and  _566
REMARK  215  A    between atoms: _566  and  _567
REMARK  216  A    between atoms: _570  and  _572
REMARK  217  A    between atoms: _572  and  _573
REMARK  218  A    between atoms: _572  and  _575
REMARK  219  A    between atoms: _575  and  _576
REMARK  220  A    between atoms: _576  and  _577
REMARK  221  A    between atoms: _577  and  _578
REMARK  222  A    between atoms: _578  and  _579
REMARK  223  A    between atoms: _583  and  _585
REMARK  224  A    between atoms: _585  and  _586
REMARK  225  A    between atoms: _585  and  _588
REMARK  226  A    between atoms: _588  and  _589
REMARK  227  A    between atoms: _595  and  _597
REMARK  228  A    between atoms: _597  and  _598
REMARK  229  A    between atoms: _597  and  _600
REMARK  230  A    between atoms: _600  and  _601
REMARK  231  A    between atoms: _607  and  _609
REMARK  232  A    between atoms: _609  and  _610
REMARK  233  A    between atoms: _613  and  _615
REMARK  234  A    between atoms: _615  and  _616
REMARK  235  A    between atoms: _615  and  _618
REMARK  236  A    between atoms: _618  and  _619
REMARK  237  A    between atoms: _619  and  _620
REMARK  238  A    between atoms: _622  and  _624
REMARK  239  A    between atoms: _624  and  _625
REMARK  240  A    between atoms: _624  and  _627
REMARK  241  A    between atoms: _627  and  _628
REMARK  242  A    between atoms: _628  and  _629
REMARK  243  A    between atoms: _629  and  _630
REMARK  244  A    between atoms: _630  and  _631
REMARK  245  A    between atoms: _635  and  _637
REMARK  246  A    between atoms: _637  and  _638
REMARK  247  A    between atoms: _637  and  _640
REMARK  248  A    between atoms: _640  and  _641
REMARK  249  A    between atoms: _646  and  _647
REMARK  250  A    between atoms: _649  and  _651
REMARK  251  A    between atoms: _651  and  _652
REMARK  252  A    between atoms: _651  and  _654
REMARK  253  A    between atoms: _654  and  _655
REMARK  254  A    between atoms: _660  and  _662
REMARK  255  A    between atoms: _662  and  _663
REMARK  256  A    between atoms: _662  and  _665
REMARK  257  A    between atoms: _665  and  _666
REMARK  258  A    between atoms: _669  and  _671
REMARK  259  A    between atoms: _671  and  _672
REMARK  260  A    between atoms: _675  and  _677
REMARK  261  A    between atoms: _677  and  _678
REMARK  262  A    between atoms: _677  and  _680
REMARK  263  A    between atoms: _680  and  _681
REMARK  264  A    between atoms: _684  and  _686
REMARK  265  A    between atoms: _686  and  _687
REMARK  266  A    between atoms: _686  and  _689
REMARK  267  A    between atoms: _692  and  _694
REMARK  268  A    between atoms: _694  and  _695
REMARK  269  A    between atoms: _694  and  _697
REMARK  270  A    between atoms: _697  and  _698
REMARK  271  A    between atoms: _698  and  _699
REMARK  272  A    between atoms: _702  and  _704
REMARK  273  A    between atoms: _704  and  _705
REMARK  274  A    between atoms: _704  and  _707
REMARK  275  A    between atoms: _707  and  _708
REMARK  276  A    between atoms: _713  and  _714
REMARK  277  A    between atoms: _716  and  _718
REMARK  278  A    between atoms: _718  and  _719
REMARK  279  A    between atoms: _718  and  _721
REMARK  280  A    between atoms: _721  and  _722
REMARK  281  A    between atoms: _722  and  _723
REMARK  282  A    between atoms: _723  and  _724
REMARK  283  A    between atoms: _733  and  _735
REMARK  284  A    between atoms: _735  and  _736
REMARK  285  A    between atoms: _735  and  _738
REMARK  286  A    between atoms: _738  and  _739
REMARK  287  A    between atoms: _744  and  _745
REMARK  288  A    between atoms: _747  and  _749
REMARK  289  A    between atoms: _749  and  _750
REMARK  290  A    between atoms: _749  and  _752
REMARK  291  A    between atoms: _752  and  _753
REMARK  292  A    between atoms: _756  and  _758
REMARK  293  A    between atoms: _758  and  _759
REMARK  294  A    between atoms: _758  and  _761
REMARK  295  A    between atoms: _761  and  _762
REMARK  296  A    between atoms: _764  and  _766
REMARK  297  A    between atoms: _766  and  _767
REMARK  298  A    between atoms: _766  and  _769
REMARK  299  A    between atoms: _769  and  _770
REMARK  300  A    between atoms: _776  and  _778
REMARK  301  A    between atoms: _778  and  _779
REMARK  302  A    between atoms: _778  and  _781
REMARK  303  A    between atoms: _781  and  _782
REMARK  304  A    between atoms: _782  and  _783
REMARK                            x       y       z     vdW  Elec       q    Type
REMARK                         _______ _______ _______ _____ _____    ______ ____
ROOT
ATOM      1  O   HOH     1      30.252   5.773 -35.690  0.00  0.00    +0.000 OA
ENDROOT
TORSDOF 0
REMARK  Name = ../refined-set-2016/4ca8/4ca8_pocket.pdb
REMARK  304 active torsions:
REMARK  status: ('A' for Active; 'I' for Inactive)
REMARK    1  A    between atoms: _1  and  _3
REMARK    2  A    between atoms: _3  and  _4
REMARK    3  A    between atoms: _3  and  _6
REMARK    4  A    between atoms: _6  and  _7
REMARK    5  A    between atoms: _7  and  _8
REMARK    6  A    between atoms: _11  and  _13
REMARK    7  A    between atoms: _13  and  _14
REMARK    8  A    between atoms: _13  and  _16
REMARK    9  A    between atoms: _16  and  _17
REMARK   10  A    between atoms: _17  and  _18
REMARK   11  A    between atoms: _21  and  _23
REMARK   12  A    between atoms: _23  and  _24
REMARK   13  A    between atoms: _23  and  _26
REMARK   14  A    between atoms: _26  and  _27
REMARK   15  A    between atoms: _32  and  _34
REMARK   16  A    between atoms: _34  and  _35
REMARK   17  A    between atoms: _34  and  _37
REMARK   18  A    between atoms: _37  and  _38
REMARK   19  A    between atoms: _48  and  _50
REMARK   20  A    between atoms: _50  and  _51
REMARK   21  A    between atoms: _50  and  _53
REMARK   22  A    between atoms: _53  and  _54
REMARK   23  A    between atoms: _54  and  _55
REMARK   24  A    between atoms: _60  and  _62
REMARK   25  A    between atoms: _62  and  _63
REMARK   26  A    between atoms: _62  and  _65
REMARK   27  A    between atoms: _65  and  _66
REMARK   28  A    between atoms: _66  and  _67
REMARK   29  A    between atoms: _72  and  _74
REMARK   30  A    between atoms: _74  and  _75
REMARK   31  A    between atoms: _74  and  _77
REMARK   32  A    between atoms: _77  and  _78
REMARK   33  A    between atoms: _80  and  _82
REMARK   34  A    between atoms: _82  and  _83
REMARK   35  A    between atoms: _82  and  _85
REMARK   36  A    between atoms: _85  and  _86
REMARK   37  A    between atoms: _86  and  _87
REMARK   38  A    between atoms: _90  and  _92
REMARK   39  A    between atoms: _92  and  _93
REMARK   40  A    between atoms: _92  and  _95
REMARK   41  A    between atoms: _98  and  _100
REMARK   42  A    between atoms: _100  and  _101
REMARK   43  A    between atoms: _100  and  _103
REMARK   44  A    between atoms: _105  and  _107
REMARK   45  A    between atoms: _107  and  _108
REMARK   46  A    between atoms: _107  and  _110
REMARK   47  A    between atoms: _110  and  _111
REMARK   48  A    between atoms: _116  and  _118
REMARK   49  A    between atoms: _118  and  _119
REMARK   50  A    between atoms: _122  and  _124
REMARK   51  A    between atoms: _124  and  _125
REMARK   52  A    between atoms: _124  and  _127
REMARK   53  A    between atoms: _127  and  _128
REMARK   54  A    between atoms: _130  and  _132
REMARK   55  A    between atoms: _132  and  _133
REMARK   56  A    between atoms: _136  and  _138
REMARK   57  A    between atoms: _138  and  _139
REMARK   58  A    between atoms: _138  and  _141
REMARK   59  A    between atoms: _141  and  _142
REMARK   60  A    between atoms: _152  and  _154
REMARK   61  A    between atoms: _154  and  _155
REMARK   62  A    between atoms: _154  and  _157
REMARK   63  A    between atoms: _157  and  _158
REMARK   64  A    between atoms: _161  and  _163
REMARK   65  A    between atoms: _163  and  _164
REMARK   66  A    between atoms: _163  and  _166
REMARK   67  A    between atoms: _166  and  _167
REMARK   68  A    between atoms: _172  and  _173
REMARK   69  A    between atoms: _175  and  _177
REMARK   70  A    between atoms: _177  and  _178
REMARK   71  A    between atoms: _177  and  _180
REMARK   72  A    between atoms: _180  and  _181
REMARK   73  A    between atoms: _181  and  _182
REMARK   74  A    between atoms: _182  and  _183
REMARK   75  A    between atoms: _192  and  _194
REMARK   76  A    between atoms: _194  and  _195
REMARK   77  A    between atoms: _194  and  _197
REMARK   78  A    between atoms: _197  and  _198
REMARK   79  A    between atoms: _201  and  _203
REMARK   80  A    between atoms: _203  and  _204
REMARK   81  A    between atoms: _203  and  _206
REMARK   82  A    between atoms: _206  and  _207
REMARK   83  A    between atoms: _207  and  _208
REMARK   84  A    between atoms: _208  and  _209
REMARK   85  A    between atoms: _209  and  _210
REMARK   86  A    between atoms: _214  and  _216
REMARK   87  A    between atoms: _216  and  _217
REMARK   88  A    between atoms: _216  and  _219
REMARK   89  A    between atoms: _219  and  _220
REMARK   90  A    between atoms: _220  and  _221
REMARK   91  A    between atoms: _226  and  _228
REMARK   92  A    between atoms: _228  and  _229
REMARK   93  A    between atoms: _228  and  _231
REMARK   94  A    between atoms: _231  and  _232
REMARK   95  A    between atoms: _232  and  _233
REMARK   96  A    between atoms: _233  and  _234
REMARK   97  A    between atoms: _243  and  _245
REMARK   98  A    between atoms: _245  and  _246
REMARK   99  A    between atoms: _245  and  _248
REMARK  100  A    between atoms: _248  and  _249
REMARK  101  A    between atoms: _252  and  _254
REMARK  102  A    between atoms: _254  and  _255
REMARK  103  A    between atoms: _254  and  _257
REMARK  104  A    between atoms: _257  and  _258
REMARK  105  A    between atoms: _258  and  _259
REMARK  106  A    between atoms: _264  and  _266
REMARK  107  A    between atoms: _266  and  _267
REMARK  108  A    between atoms: _266  and  _269
REMARK  109  A    between atoms: _269  and  _270
REMARK  110  A    between atoms: _273  and  _275
REMARK  111  A    between atoms: _275  and  _276
REMARK  112  A    between atoms: _275  and  _278
REMARK  113  A    between atoms: _278  and  _279
REMARK  114  A    between atoms: _279  and  _280
REMARK  115  A    between atoms: _285  and  _287
REMARK  116  A    between atoms: _287  and  _288
REMARK  117  A    between atoms: _287  and  _290
REMARK  118  A    between atoms: _290  and  _291
REMARK  119  A    between atoms: _294  and  _296
REMARK  120  A    between atoms: _296  and  _297
REMARK  121  A    between atoms: _296  and  _299
REMARK  122  A    between atoms: _299  and  _300
REMARK  123  A    between atoms: _306  and  _308
REMARK  124  A    between atoms: _308  and  _309
REMARK  125  A    between atoms: _308  and  _311
REMARK  126  A    between atoms: _311  and  _312
REMARK  127  A    between atoms: _315  and  _317
REMARK  128  A    between atoms: _317  and  _318
REMARK  129  A    between atoms: _317  and  _320
REMARK  130  A    between atoms: _323  and  _325
REMARK  131  A    between atoms: _325  and  _326
REMARK  132  A    between atoms: _325  and  _328
REMARK  133  A    between atoms: _328  and  _329
REMARK  134  A    between atoms: _334  and  _336
REMARK  135  A    between atoms: _347  and  _350
REMARK  136  A    between atoms: _350  and  _351
REMARK  137  A    between atoms: _351  and  _352
REMARK  138  A    between atoms: _357  and  _360
REMARK  139  A    between atoms: _360  and  _361
REMARK  140  A    between atoms: _371  and  _372
REMARK  141  A    between atoms: _380  and  _382
REMARK  142  A    between atoms: _382  and  _383
REMARK  143  A    between atoms: _382  and  _385
REMARK  144  A    between atoms: _385  and  _386
REMARK  145  A    between atoms: _389  and  _391
REMARK  146  A    between atoms: _391  and  _392
REMARK  147  A    between atoms: _391  and  _394
REMARK  148  A    between atoms: _394  and  _395
REMARK  149  A    between atoms: _400  and  _401
REMARK  150  A    between atoms: _403  and  _405
REMARK  151  A    between atoms: _405  and  _406
REMARK  152  A    between atoms: _405  and  _408
REMARK  153  A    between atoms: _408  and  _409
REMARK  154  A    between atoms: _415  and  _417
REMARK  155  A    between atoms: _417  and  _418
REMARK  156  A    between atoms: _417  and  _420
REMARK  157  A    between atoms: _420  and  _421
REMARK  158  A    between atoms: _426  and  _427
REMARK  159  A    between atoms: _429  and  _431
REMARK  160  A    between atoms: _431  and  _432
REMARK  161  A    between atoms: _431  and  _434
REMARK  162  A    between atoms: _434  and  _435
REMARK  163  A    between atoms: _435  and  _436
REMARK  164  A    between atoms: _436  and  _437
REMARK  165  A    between atoms: _446  and  _448
REMARK  166  A    between atoms: _448  and  _449
REMARK  167  A    between atoms: _448  and  _451
REMARK  168  A    between atoms: _451  and  _452
REMARK  169  A    between atoms: _455  and  _457
REMARK  170  A    between atoms: _457  and  _458
REMARK  171  A    between atoms: _460  and  _462
REMARK  172  A    between atoms: _462  and  _463
REMARK  173  A    between atoms: _462  and  _465
REMARK  174  A    between atoms: _465  and  _466
REMARK  175  A    between atoms: _472  and  _473
REMARK  176  A    between atoms: _478  and  _480
REMARK  177  A    between atoms: _480  and  _481
REMARK  178  A    between atoms: _483  and  _485
REMARK  179  A    between atoms: _485  and  _486
REMARK  180  A    between atoms: _485  and  _488
REMARK  181  A    between atoms: _488  and  _489
REMARK  182  A    between atoms: _495  and  _497
REMARK  183  A    between atoms: _497  and  _498
REMARK  184  A    between atoms: _497  and  _500
REMARK  185  A    between atoms: _500  and  _501
REMARK  186  A    between atoms: _506  and  _508
REMARK  187  A    between atoms: _508  and  _509
REMARK  188  A    between atoms: _508  and  _511
REMARK  189  A    between atoms: _511  and  _512
REMARK  190  A    between atoms: _512  and  _513
REMARK  191  A    between atoms: _513  and  _514
REMARK  192  A    between atoms: _514  and  ZN_788
REMARK  193  A    between atoms: _516  and  _518
REMARK  194  A    between atoms: _518  and  _519
REMARK  195  A    between atoms: _522  and  _524
REMARK  196  A    between atoms: _524  and  _525
REMARK  197  A    between atoms: _527  and  _529
REMARK  198  A    between atoms: _529  and  _530
REMARK  199  A    between atoms: _529  and  _532
REMARK  200  A    between atoms: _532  and  _533
REMARK  201  A    between atoms: _536  and  _538
REMARK  202  A    between atoms: _538  and  _539
REMARK  203  A    between atoms: _538  and  _541
REMARK  204  A    between atoms: _544  and  _546
REMARK  205  A    between atoms: _546  and  _547
REMARK  206  A    between atoms: _546  and  _549
REMARK  207  A    between atoms: _549  and  _550
REMARK  208  A    between atoms: _552  and  _554
REMARK  209  A    between atoms: _554  and  _555
REMARK  210  A    between atoms: _554  and  _557
REMARK  211  A    between atoms: _557  and  _558
REMARK  212  A    between atoms: _561  and  _563
REMARK  213  A    between atoms: _563  and  _564
REMARK  214  A    between atoms: _563  and  _566
REMARK  215  A    between atoms: _566  and  _567
REMARK  216  A    between atoms: _570  and  _572
REMARK  217  A    between atoms: _572  and  _573
REMARK  218  A    between atoms: _572  and  _575
REMARK  219  A    between atoms: _575  and  _576
REMARK  220  A    between atoms: _576  and  _577
REMARK  221  A    between atoms: _577  and  _578
REMARK  222  A    between atoms: _578  and  _579
REMARK  223  A    between atoms: _583  and  _585
REMARK  224  A    between atoms: _585  and  _586
REMARK  225  A    between atoms: _585  and  _588
REMARK  226  A    between atoms: _588  and  _589
REMARK  227  A    between atoms: _595  and  _597
REMARK  228  A    between atoms: _597  and  _598
REMARK  229  A    between atoms: _597  and  _600
REMARK  230  A    between atoms: _600  and  _601
REMARK  231  A    between atoms: _607  and  _609
REMARK  232  A    between atoms: _609  and  _610
REMARK  233  A    between atoms: _613  and  _615
REMARK  234  A    between atoms: _615  and  _616
REMARK  235  A    between atoms: _615  and  _618
REMARK  236  A    between atoms: _618  and  _619
REMARK  237  A    between atoms: _619  and  _620
REMARK  238  A    between atoms: _622  and  _624
REMARK  239  A    between atoms: _624  and  _625
REMARK  240  A    between atoms: _624  and  _627
REMARK  241  A    between atoms: _627  and  _628
REMARK  242  A    between atoms: _628  and  _629
REMARK  243  A    between atoms: _629  and  _630
REMARK  244  A    between atoms: _630  and  _631
REMARK  245  A    between atoms: _635  and  _637
REMARK  246  A    between atoms: _637  and  _638
REMARK  247  A    between atoms: _637  and  _640
REMARK  248  A    between atoms: _640  and  _641
REMARK  249  A    between atoms: _646  and  _647
REMARK  250  A    between atoms: _649  and  _651
REMARK  251  A    between atoms: _651  and  _652
REMARK  252  A    between atoms: _651  and  _654
REMARK  253  A    between atoms: _654  and  _655
REMARK  254  A    between atoms: _660  and  _662
REMARK  255  A    between atoms: _662  and  _663
REMARK  256  A    between atoms: _662  and  _665
REMARK  257  A    between atoms: _665  and  _666
REMARK  258  A    between atoms: _669  and  _671
REMARK  259  A    between atoms: _671  and  _672
REMARK  260  A    between atoms: _675  and  _677
REMARK  261  A    between atoms: _677  and  _678
REMARK  262  A    between atoms: _677  and  _680
REMARK  263  A    between atoms: _680  and  _681
REMARK  264  A    between atoms: _684  and  _686
REMARK  265  A    between atoms: _686  and  _687
REMARK  266  A    between atoms: _686  and  _689
REMARK  267  A    between atoms: _692  and  _694
REMARK  268  A    between atoms: _694  and  _695
REMARK  269  A    between atoms: _694  and  _697
REMARK  270  A    between atoms: _697  and  _698
REMARK  271  A    between atoms: _698  and  _699
REMARK  272  A    between atoms: _702  and  _704
REMARK  273  A    between atoms: _704  and  _705
REMARK  274  A    between atoms: _704  and  _707
REMARK  275  A    between atoms: _707  and  _708
REMARK  276  A    between atoms: _713  and  _714
REMARK  277  A    between atoms: _716  and  _718
REMARK  278  A    between atoms: _718  and  _719
REMARK  279  A    between atoms: _718  and  _721
REMARK  280  A    between atoms: _721  and  _722
REMARK  281  A    between atoms: _722  and  _723
REMARK  282  A    between atoms: _723  and  _724
REMARK  283  A    between atoms: _733  and  _735
REMARK  284  A    between atoms: _735  and  _736
REMARK  285  A    between atoms: _735  and  _738
REMARK  286  A    between atoms: _738  and  _739
REMARK  287  A    between atoms: _744  and  _745
REMARK  288  A    between atoms: _747  and  _749
REMARK  289  A    between atoms: _749  and  _750
REMARK  290  A    between atoms: _749  and  _752
REMARK  291  A    between atoms: _752  and  _753
REMARK  292  A    between atoms: _756  and  _758
REMARK  293  A    between atoms: _758  and  _759
REMARK  294  A    between atoms: _758  and  _761
REMARK  295  A    between atoms: _761  and  _762
REMARK  296  A    between atoms: _764  and  _766
REMARK  297  A    between atoms: _766  and  _767
REMARK  298  A    between atoms: _766  and  _769
REMARK  299  A    between atoms: _769  and  _770
REMARK  300  A    between atoms: _776  and  _778
REMARK  301  A    between atoms: _778  and  _779
REMARK  302  A    between atoms: _778  and  _781
REMARK  303  A    between atoms: _781  and  _782
REMARK  304  A    between atoms: _782  and  _783
REMARK                            x       y       z     vdW  Elec       q    Type
REMARK                         _______ _______ _______ _____ _____    ______ ____
ROOT
ATOM      1  O   HOH     1      33.270  10.010 -33.056  0.00  0.00    +0.000 OA
ENDROOT
TORSDOF 0
REMARK  Name = ../refined-set-2016/4ca8/4ca8_pocket.pdb
REMARK  304 active torsions:
REMARK  status: ('A' for Active; 'I' for Inactive)
REMARK    1  A    between atoms: _1  and  _3
REMARK    2  A    between atoms: _3  and  _4
REMARK    3  A    between atoms: _3  and  _6
REMARK    4  A    between atoms: _6  and  _7
REMARK    5  A    between atoms: _7  and  _8
REMARK    6  A    between atoms: _11  and  _13
REMARK    7  A    between atoms: _13  and  _14
REMARK    8  A    between atoms: _13  and  _16
REMARK    9  A    between atoms: _16  and  _17
REMARK   10  A    between atoms: _17  and  _18
REMARK   11  A    between atoms: _21  and  _23
REMARK   12  A    between atoms: _23  and  _24
REMARK   13  A    between atoms: _23  and  _26
REMARK   14  A    between atoms: _26  and  _27
REMARK   15  A    between atoms: _32  and  _34
REMARK   16  A    between atoms: _34  and  _35
REMARK   17  A    between atoms: _34  and  _37
REMARK   18  A    between atoms: _37  and  _38
REMARK   19  A    between atoms: _48  and  _50
REMARK   20  A    between atoms: _50  and  _51
REMARK   21  A    between atoms: _50  and  _53
REMARK   22  A    between atoms: _53  and  _54
REMARK   23  A    between atoms: _54  and  _55
REMARK   24  A    between atoms: _60  and  _62
REMARK   25  A    between atoms: _62  and  _63
REMARK   26  A    between atoms: _62  and  _65
REMARK   27  A    between atoms: _65  and  _66
REMARK   28  A    between atoms: _66  and  _67
REMARK   29  A    between atoms: _72  and  _74
REMARK   30  A    between atoms: _74  and  _75
REMARK   31  A    between atoms: _74  and  _77
REMARK   32  A    between atoms: _77  and  _78
REMARK   33  A    between atoms: _80  and  _82
REMARK   34  A    between atoms: _82  and  _83
REMARK   35  A    between atoms: _82  and  _85
REMARK   36  A    between atoms: _85  and  _86
REMARK   37  A    between atoms: _86  and  _87
REMARK   38  A    between atoms: _90  and  _92
REMARK   39  A    between atoms: _92  and  _93
REMARK   40  A    between atoms: _92  and  _95
REMARK   41  A    between atoms: _98  and  _100
REMARK   42  A    between atoms: _100  and  _101
REMARK   43  A    between atoms: _100  and  _103
REMARK   44  A    between atoms: _105  and  _107
REMARK   45  A    between atoms: _107  and  _108
REMARK   46  A    between atoms: _107  and  _110
REMARK   47  A    between atoms: _110  and  _111
REMARK   48  A    between atoms: _116  and  _118
REMARK   49  A    between atoms: _118  and  _119
REMARK   50  A    between atoms: _122  and  _124
REMARK   51  A    between atoms: _124  and  _125
REMARK   52  A    between atoms: _124  and  _127
REMARK   53  A    between atoms: _127  and  _128
REMARK   54  A    between atoms: _130  and  _132
REMARK   55  A    between atoms: _132  and  _133
REMARK   56  A    between atoms: _136  and  _138
REMARK   57  A    between atoms: _138  and  _139
REMARK   58  A    between atoms: _138  and  _141
REMARK   59  A    between atoms: _141  and  _142
REMARK   60  A    between atoms: _152  and  _154
REMARK   61  A    between atoms: _154  and  _155
REMARK   62  A    between atoms: _154  and  _157
REMARK   63  A    between atoms: _157  and  _158
REMARK   64  A    between atoms: _161  and  _163
REMARK   65  A    between atoms: _163  and  _164
REMARK   66  A    between atoms: _163  and  _166
REMARK   67  A    between atoms: _166  and  _167
REMARK   68  A    between atoms: _172  and  _173
REMARK   69  A    between atoms: _175  and  _177
REMARK   70  A    between atoms: _177  and  _178
REMARK   71  A    between atoms: _177  and  _180
REMARK   72  A    between atoms: _180  and  _181
REMARK   73  A    between atoms: _181  and  _182
REMARK   74  A    between atoms: _182  and  _183
REMARK   75  A    between atoms: _192  and  _194
REMARK   76  A    between atoms: _194  and  _195
REMARK   77  A    between atoms: _194  and  _197
REMARK   78  A    between atoms: _197  and  _198
REMARK   79  A    between atoms: _201  and  _203
REMARK   80  A    between atoms: _203  and  _204
REMARK   81  A    between atoms: _203  and  _206
REMARK   82  A    between atoms: _206  and  _207
REMARK   83  A    between atoms: _207  and  _208
REMARK   84  A    between atoms: _208  and  _209
REMARK   85  A    between atoms: _209  and  _210
REMARK   86  A    between atoms: _214  and  _216
REMARK   87  A    between atoms: _216  and  _217
REMARK   88  A    between atoms: _216  and  _219
REMARK   89  A    between atoms: _219  and  _220
REMARK   90  A    between atoms: _220  and  _221
REMARK   91  A    between atoms: _226  and  _228
REMARK   92  A    between atoms: _228  and  _229
REMARK   93  A    between atoms: _228  and  _231
REMARK   94  A    between atoms: _231  and  _232
REMARK   95  A    between atoms: _232  and  _233
REMARK   96  A    between atoms: _233  and  _234
REMARK   97  A    between atoms: _243  and  _245
REMARK   98  A    between atoms: _245  and  _246
REMARK   99  A    between atoms: _245  and  _248
REMARK  100  A    between atoms: _248  and  _249
REMARK  101  A    between atoms: _252  and  _254
REMARK  102  A    between atoms: _254  and  _255
REMARK  103  A    between atoms: _254  and  _257
REMARK  104  A    between atoms: _257  and  _258
REMARK  105  A    between atoms: _258  and  _259
REMARK  106  A    between atoms: _264  and  _266
REMARK  107  A    between atoms: _266  and  _267
REMARK  108  A    between atoms: _266  and  _269
REMARK  109  A    between atoms: _269  and  _270
REMARK  110  A    between atoms: _273  and  _275
REMARK  111  A    between atoms: _275  and  _276
REMARK  112  A    between atoms: _275  and  _278
REMARK  113  A    between atoms: _278  and  _279
REMARK  114  A    between atoms: _279  and  _280
REMARK  115  A    between atoms: _285  and  _287
REMARK  116  A    between atoms: _287  and  _288
REMARK  117  A    between atoms: _287  and  _290
REMARK  118  A    between atoms: _290  and  _291
REMARK  119  A    between atoms: _294  and  _296
REMARK  120  A    between atoms: _296  and  _297
REMARK  121  A    between atoms: _296  and  _299
REMARK  122  A    between atoms: _299  and  _300
REMARK  123  A    between atoms: _306  and  _308
REMARK  124  A    between atoms: _308  and  _309
REMARK  125  A    between atoms: _308  and  _311
REMARK  126  A    between atoms: _311  and  _312
REMARK  127  A    between atoms: _315  and  _317
REMARK  128  A    between atoms: _317  and  _318
REMARK  129  A    between atoms: _317  and  _320
REMARK  130  A    between atoms: _323  and  _325
REMARK  131  A    between atoms: _325  and  _326
REMARK  132  A    between atoms: _325  and  _328
REMARK  133  A    between atoms: _328  and  _329
REMARK  134  A    between atoms: _334  and  _336
REMARK  135  A    between atoms: _347  and  _350
REMARK  136  A    between atoms: _350  and  _351
REMARK  137  A    between atoms: _351  and  _352
REMARK  138  A    between atoms: _357  and  _360
REMARK  139  A    between atoms: _360  and  _361
REMARK  140  A    between atoms: _371  and  _372
REMARK  141  A    between atoms: _380  and  _382
REMARK  142  A    between atoms: _382  and  _383
REMARK  143  A    between atoms: _382  and  _385
REMARK  144  A    between atoms: _385  and  _386
REMARK  145  A    between atoms: _389  and  _391
REMARK  146  A    between atoms: _391  and  _392
REMARK  147  A    between atoms: _391  and  _394
REMARK  148  A    between atoms: _394  and  _395
REMARK  149  A    between atoms: _400  and  _401
REMARK  150  A    between atoms: _403  and  _405
REMARK  151  A    between atoms: _405  and  _406
REMARK  152  A    between atoms: _405  and  _408
REMARK  153  A    between atoms: _408  and  _409
REMARK  154  A    between atoms: _415  and  _417
REMARK  155  A    between atoms: _417  and  _418
REMARK  156  A    between atoms: _417  and  _420
REMARK  157  A    between atoms: _420  and  _421
REMARK  158  A    between atoms: _426  and  _427
REMARK  159  A    between atoms: _429  and  _431
REMARK  160  A    between atoms: _431  and  _432
REMARK  161  A    between atoms: _431  and  _434
REMARK  162  A    between atoms: _434  and  _435
REMARK  163  A    between atoms: _435  and  _436
REMARK  164  A    between atoms: _436  and  _437
REMARK  165  A    between atoms: _446  and  _448
REMARK  166  A    between atoms: _448  and  _449
REMARK  167  A    between atoms: _448  and  _451
REMARK  168  A    between atoms: _451  and  _452
REMARK  169  A    between atoms: _455  and  _457
REMARK  170  A    between atoms: _457  and  _458
REMARK  171  A    between atoms: _460  and  _462
REMARK  172  A    between atoms: _462  and  _463
REMARK  173  A    between atoms: _462  and  _465
REMARK  174  A    between atoms: _465  and  _466
REMARK  175  A    between atoms: _472  and  _473
REMARK  176  A    between atoms: _478  and  _480
REMARK  177  A    between atoms: _480  and  _481
REMARK  178  A    between atoms: _483  and  _485
REMARK  179  A    between atoms: _485  and  _486
REMARK  180  A    between atoms: _485  and  _488
REMARK  181  A    between atoms: _488  and  _489
REMARK  182  A    between atoms: _495  and  _497
REMARK  183  A    between atoms: _497  and  _498
REMARK  184  A    between atoms: _497  and  _500
REMARK  185  A    between atoms: _500  and  _501
REMARK  186  A    between atoms: _506  and  _508
REMARK  187  A    between atoms: _508  and  _509
REMARK  188  A    between atoms: _508  and  _511
REMARK  189  A    between atoms: _511  and  _512
REMARK  190  A    between atoms: _512  and  _513
REMARK  191  A    between atoms: _513  and  _514
REMARK  192  A    between atoms: _514  and  ZN_788
REMARK  193  A    between atoms: _516  and  _518
REMARK  194  A    between atoms: _518  and  _519
REMARK  195  A    between atoms: _522  and  _524
REMARK  196  A    between atoms: _524  and  _525
REMARK  197  A    between atoms: _527  and  _529
REMARK  198  A    between atoms: _529  and  _530
REMARK  199  A    between atoms: _529  and  _532
REMARK  200  A    between atoms: _532  and  _533
REMARK  201  A    between atoms: _536  and  _538
REMARK  202  A    between atoms: _538  and  _539
REMARK  203  A    between atoms: _538  and  _541
REMARK  204  A    between atoms: _544  and  _546
REMARK  205  A    between atoms: _546  and  _547
REMARK  206  A    between atoms: _546  and  _549
REMARK  207  A    between atoms: _549  and  _550
REMARK  208  A    between atoms: _552  and  _554
REMARK  209  A    between atoms: _554  and  _555
REMARK  210  A    between atoms: _554  and  _557
REMARK  211  A    between atoms: _557  and  _558
REMARK  212  A    between atoms: _561  and  _563
REMARK  213  A    between atoms: _563  and  _564
REMARK  214  A    between atoms: _563  and  _566
REMARK  215  A    between atoms: _566  and  _567
REMARK  216  A    between atoms: _570  and  _572
REMARK  217  A    between atoms: _572  and  _573
REMARK  218  A    between atoms: _572  and  _575
REMARK  219  A    between atoms: _575  and  _576
REMARK  220  A    between atoms: _576  and  _577
REMARK  221  A    between atoms: _577  and  _578
REMARK  222  A    between atoms: _578  and  _579
REMARK  223  A    between atoms: _583  and  _585
REMARK  224  A    between atoms: _585  and  _586
REMARK  225  A    between atoms: _585  and  _588
REMARK  226  A    between atoms: _588  and  _589
REMARK  227  A    between atoms: _595  and  _597
REMARK  228  A    between atoms: _597  and  _598
REMARK  229  A    between atoms: _597  and  _600
REMARK  230  A    between atoms: _600  and  _601
REMARK  231  A    between atoms: _607  and  _609
REMARK  232  A    between atoms: _609  and  _610
REMARK  233  A    between atoms: _613  and  _615
REMARK  234  A    between atoms: _615  and  _616
REMARK  235  A    between atoms: _615  and  _618
REMARK  236  A    between atoms: _618  and  _619
REMARK  237  A    between atoms: _619  and  _620
REMARK  238  A    between atoms: _622  and  _624
REMARK  239  A    between atoms: _624  and  _625
REMARK  240  A    between atoms: _624  and  _627
REMARK  241  A    between atoms: _627  and  _628
REMARK  242  A    between atoms: _628  and  _629
REMARK  243  A    between atoms: _629  and  _630
REMARK  244  A    between atoms: _630  and  _631
REMARK  245  A    between atoms: _635  and  _637
REMARK  246  A    between atoms: _637  and  _638
REMARK  247  A    between atoms: _637  and  _640
REMARK  248  A    between atoms: _640  and  _641
REMARK  249  A    between atoms: _646  and  _647
REMARK  250  A    between atoms: _649  and  _651
REMARK  251  A    between atoms: _651  and  _652
REMARK  252  A    between atoms: _651  and  _654
REMARK  253  A    between atoms: _654  and  _655
REMARK  254  A    between atoms: _660  and  _662
REMARK  255  A    between atoms: _662  and  _663
REMARK  256  A    between atoms: _662  and  _665
REMARK  257  A    between atoms: _665  and  _666
REMARK  258  A    between atoms: _669  and  _671
REMARK  259  A    between atoms: _671  and  _672
REMARK  260  A    between atoms: _675  and  _677
REMARK  261  A    between atoms: _677  and  _678
REMARK  262  A    between atoms: _677  and  _680
REMARK  263  A    between atoms: _680  and  _681
REMARK  264  A    between atoms: _684  and  _686
REMARK  265  A    between atoms: _686  and  _687
REMARK  266  A    between atoms: _686  and  _689
REMARK  267  A    between atoms: _692  and  _694
REMARK  268  A    between atoms: _694  and  _695
REMARK  269  A    between atoms: _694  and  _697
REMARK  270  A    between atoms: _697  and  _698
REMARK  271  A    between atoms: _698  and  _699
REMARK  272  A    between atoms: _702  and  _704
REMARK  273  A    between atoms: _704  and  _705
REMARK  274  A    between atoms: _704  and  _707
REMARK  275  A    between atoms: _707  and  _708
REMARK  276  A    between atoms: _713  and  _714
REMARK  277  A    between atoms: _716  and  _718
REMARK  278  A    between atoms: _718  and  _719
REMARK  279  A    between atoms: _718  and  _721
REMARK  280  A    between atoms: _721  and  _722
REMARK  281  A    between atoms: _722  and  _723
REMARK  282  A    between atoms: _723  and  _724
REMARK  283  A    between atoms: _733  and  _735
REMARK  284  A    between atoms: _735  and  _736
REMARK  285  A    between atoms: _735  and  _738
REMARK  286  A    between atoms: _738  and  _739
REMARK  287  A    between atoms: _744  and  _745
REMARK  288  A    between atoms: _747  and  _749
REMARK  289  A    between atoms: _749  and  _750
REMARK  290  A    between atoms: _749  and  _752
REMARK  291  A    between atoms: _752  and  _753
REMARK  292  A    between atoms: _756  and  _758
REMARK  293  A    between atoms: _758  and  _759
REMARK  294  A    between atoms: _758  and  _761
REMARK  295  A    between atoms: _761  and  _762
REMARK  296  A    between atoms: _764  and  _766
REMARK  297  A    between atoms: _766  and  _767
REMARK  298  A    between atoms: _766  and  _769
REMARK  299  A    between atoms: _769  and  _770
REMARK  300  A    between atoms: _776  and  _778
REMARK  301  A    between atoms: _778  and  _779
REMARK  302  A    between atoms: _778  and  _781
REMARK  303  A    between atoms: _781  and  _782
REMARK  304  A    between atoms: _782  and  _783
REMARK                            x       y       z     vdW  Elec       q    Type
REMARK                         _______ _______ _______ _____ _____    ______ ____
ROOT
ATOM      1  O   HOH     1      28.484  -9.710 -54.457  0.00  0.00    +0.000 OA
ENDROOT
TORSDOF 0
REMARK  Name = ../refined-set-2016/4ca8/4ca8_pocket.pdb
REMARK  304 active torsions:
REMARK  status: ('A' for Active; 'I' for Inactive)
REMARK    1  A    between atoms: _1  and  _3
REMARK    2  A    between atoms: _3  and  _4
REMARK    3  A    between atoms: _3  and  _6
REMARK    4  A    between atoms: _6  and  _7
REMARK    5  A    between atoms: _7  and  _8
REMARK    6  A    between atoms: _11  and  _13
REMARK    7  A    between atoms: _13  and  _14
REMARK    8  A    between atoms: _13  and  _16
REMARK    9  A    between atoms: _16  and  _17
REMARK   10  A    between atoms: _17  and  _18
REMARK   11  A    between atoms: _21  and  _23
REMARK   12  A    between atoms: _23  and  _24
REMARK   13  A    between atoms: _23  and  _26
REMARK   14  A    between atoms: _26  and  _27
REMARK   15  A    between atoms: _32  and  _34
REMARK   16  A    between atoms: _34  and  _35
REMARK   17  A    between atoms: _34  and  _37
REMARK   18  A    between atoms: _37  and  _38
REMARK   19  A    between atoms: _48  and  _50
REMARK   20  A    between atoms: _50  and  _51
REMARK   21  A    between atoms: _50  and  _53
REMARK   22  A    between atoms: _53  and  _54
REMARK   23  A    between atoms: _54  and  _55
REMARK   24  A    between atoms: _60  and  _62
REMARK   25  A    between atoms: _62  and  _63
REMARK   26  A    between atoms: _62  and  _65
REMARK   27  A    between atoms: _65  and  _66
REMARK   28  A    between atoms: _66  and  _67
REMARK   29  A    between atoms: _72  and  _74
REMARK   30  A    between atoms: _74  and  _75
REMARK   31  A    between atoms: _74  and  _77
REMARK   32  A    between atoms: _77  and  _78
REMARK   33  A    between atoms: _80  and  _82
REMARK   34  A    between atoms: _82  and  _83
REMARK   35  A    between atoms: _82  and  _85
REMARK   36  A    between atoms: _85  and  _86
REMARK   37  A    between atoms: _86  and  _87
REMARK   38  A    between atoms: _90  and  _92
REMARK   39  A    between atoms: _92  and  _93
REMARK   40  A    between atoms: _92  and  _95
REMARK   41  A    between atoms: _98  and  _100
REMARK   42  A    between atoms: _100  and  _101
REMARK   43  A    between atoms: _100  and  _103
REMARK   44  A    between atoms: _105  and  _107
REMARK   45  A    between atoms: _107  and  _108
REMARK   46  A    between atoms: _107  and  _110
REMARK   47  A    between atoms: _110  and  _111
REMARK   48  A    between atoms: _116  and  _118
REMARK   49  A    between atoms: _118  and  _119
REMARK   50  A    between atoms: _122  and  _124
REMARK   51  A    between atoms: _124  and  _125
REMARK   52  A    between atoms: _124  and  _127
REMARK   53  A    between atoms: _127  and  _128
REMARK   54  A    between atoms: _130  and  _132
REMARK   55  A    between atoms: _132  and  _133
REMARK   56  A    between atoms: _136  and  _138
REMARK   57  A    between atoms: _138  and  _139
REMARK   58  A    between atoms: _138  and  _141
REMARK   59  A    between atoms: _141  and  _142
REMARK   60  A    between atoms: _152  and  _154
REMARK   61  A    between atoms: _154  and  _155
REMARK   62  A    between atoms: _154  and  _157
REMARK   63  A    between atoms: _157  and  _158
REMARK   64  A    between atoms: _161  and  _163
REMARK   65  A    between atoms: _163  and  _164
REMARK   66  A    between atoms: _163  and  _166
REMARK   67  A    between atoms: _166  and  _167
REMARK   68  A    between atoms: _172  and  _173
REMARK   69  A    between atoms: _175  and  _177
REMARK   70  A    between atoms: _177  and  _178
REMARK   71  A    between atoms: _177  and  _180
REMARK   72  A    between atoms: _180  and  _181
REMARK   73  A    between atoms: _181  and  _182
REMARK   74  A    between atoms: _182  and  _183
REMARK   75  A    between atoms: _192  and  _194
REMARK   76  A    between atoms: _194  and  _195
REMARK   77  A    between atoms: _194  and  _197
REMARK   78  A    between atoms: _197  and  _198
REMARK   79  A    between atoms: _201  and  _203
REMARK   80  A    between atoms: _203  and  _204
REMARK   81  A    between atoms: _203  and  _206
REMARK   82  A    between atoms: _206  and  _207
REMARK   83  A    between atoms: _207  and  _208
REMARK   84  A    between atoms: _208  and  _209
REMARK   85  A    between atoms: _209  and  _210
REMARK   86  A    between atoms: _214  and  _216
REMARK   87  A    between atoms: _216  and  _217
REMARK   88  A    between atoms: _216  and  _219
REMARK   89  A    between atoms: _219  and  _220
REMARK   90  A    between atoms: _220  and  _221
REMARK   91  A    between atoms: _226  and  _228
REMARK   92  A    between atoms: _228  and  _229
REMARK   93  A    between atoms: _228  and  _231
REMARK   94  A    between atoms: _231  and  _232
REMARK   95  A    between atoms: _232  and  _233
REMARK   96  A    between atoms: _233  and  _234
REMARK   97  A    between atoms: _243  and  _245
REMARK   98  A    between atoms: _245  and  _246
REMARK   99  A    between atoms: _245  and  _248
REMARK  100  A    between atoms: _248  and  _249
REMARK  101  A    between atoms: _252  and  _254
REMARK  102  A    between atoms: _254  and  _255
REMARK  103  A    between atoms: _254  and  _257
REMARK  104  A    between atoms: _257  and  _258
REMARK  105  A    between atoms: _258  and  _259
REMARK  106  A    between atoms: _264  and  _266
REMARK  107  A    between atoms: _266  and  _267
REMARK  108  A    between atoms: _266  and  _269
REMARK  109  A    between atoms: _269  and  _270
REMARK  110  A    between atoms: _273  and  _275
REMARK  111  A    between atoms: _275  and  _276
REMARK  112  A    between atoms: _275  and  _278
REMARK  113  A    between atoms: _278  and  _279
REMARK  114  A    between atoms: _279  and  _280
REMARK  115  A    between atoms: _285  and  _287
REMARK  116  A    between atoms: _287  and  _288
REMARK  117  A    between atoms: _287  and  _290
REMARK  118  A    between atoms: _290  and  _291
REMARK  119  A    between atoms: _294  and  _296
REMARK  120  A    between atoms: _296  and  _297
REMARK  121  A    between atoms: _296  and  _299
REMARK  122  A    between atoms: _299  and  _300
REMARK  123  A    between atoms: _306  and  _308
REMARK  124  A    between atoms: _308  and  _309
REMARK  125  A    between atoms: _308  and  _311
REMARK  126  A    between atoms: _311  and  _312
REMARK  127  A    between atoms: _315  and  _317
REMARK  128  A    between atoms: _317  and  _318
REMARK  129  A    between atoms: _317  and  _320
REMARK  130  A    between atoms: _323  and  _325
REMARK  131  A    between atoms: _325  and  _326
REMARK  132  A    between atoms: _325  and  _328
REMARK  133  A    between atoms: _328  and  _329
REMARK  134  A    between atoms: _334  and  _336
REMARK  135  A    between atoms: _347  and  _350
REMARK  136  A    between atoms: _350  and  _351
REMARK  137  A    between atoms: _351  and  _352
REMARK  138  A    between atoms: _357  and  _360
REMARK  139  A    between atoms: _360  and  _361
REMARK  140  A    between atoms: _371  and  _372
REMARK  141  A    between atoms: _380  and  _382
REMARK  142  A    between atoms: _382  and  _383
REMARK  143  A    between atoms: _382  and  _385
REMARK  144  A    between atoms: _385  and  _386
REMARK  145  A    between atoms: _389  and  _391
REMARK  146  A    between atoms: _391  and  _392
REMARK  147  A    between atoms: _391  and  _394
REMARK  148  A    between atoms: _394  and  _395
REMARK  149  A    between atoms: _400  and  _401
REMARK  150  A    between atoms: _403  and  _405
REMARK  151  A    between atoms: _405  and  _406
REMARK  152  A    between atoms: _405  and  _408
REMARK  153  A    between atoms: _408  and  _409
REMARK  154  A    between atoms: _415  and  _417
REMARK  155  A    between atoms: _417  and  _418
REMARK  156  A    between atoms: _417  and  _420
REMARK  157  A    between atoms: _420  and  _421
REMARK  158  A    between atoms: _426  and  _427
REMARK  159  A    between atoms: _429  and  _431
REMARK  160  A    between atoms: _431  and  _432
REMARK  161  A    between atoms: _431  and  _434
REMARK  162  A    between atoms: _434  and  _435
REMARK  163  A    between atoms: _435  and  _436
REMARK  164  A    between atoms: _436  and  _437
REMARK  165  A    between atoms: _446  and  _448
REMARK  166  A    between atoms: _448  and  _449
REMARK  167  A    between atoms: _448  and  _451
REMARK  168  A    between atoms: _451  and  _452
REMARK  169  A    between atoms: _455  and  _457
REMARK  170  A    between atoms: _457  and  _458
REMARK  171  A    between atoms: _460  and  _462
REMARK  172  A    between atoms: _462  and  _463
REMARK  173  A    between atoms: _462  and  _465
REMARK  174  A    between atoms: _465  and  _466
REMARK  175  A    between atoms: _472  and  _473
REMARK  176  A    between atoms: _478  and  _480
REMARK  177  A    between atoms: _480  and  _481
REMARK  178  A    between atoms: _483  and  _485
REMARK  179  A    between atoms: _485  and  _486
REMARK  180  A    between atoms: _485  and  _488
REMARK  181  A    between atoms: _488  and  _489
REMARK  182  A    between atoms: _495  and  _497
REMARK  183  A    between atoms: _497  and  _498
REMARK  184  A    between atoms: _497  and  _500
REMARK  185  A    between atoms: _500  and  _501
REMARK  186  A    between atoms: _506  and  _508
REMARK  187  A    between atoms: _508  and  _509
REMARK  188  A    between atoms: _508  and  _511
REMARK  189  A    between atoms: _511  and  _512
REMARK  190  A    between atoms: _512  and  _513
REMARK  191  A    between atoms: _513  and  _514
REMARK  192  A    between atoms: _514  and  ZN_788
REMARK  193  A    between atoms: _516  and  _518
REMARK  194  A    between atoms: _518  and  _519
REMARK  195  A    between atoms: _522  and  _524
REMARK  196  A    between atoms: _524  and  _525
REMARK  197  A    between atoms: _527  and  _529
REMARK  198  A    between atoms: _529  and  _530
REMARK  199  A    between atoms: _529  and  _532
REMARK  200  A    between atoms: _532  and  _533
REMARK  201  A    between atoms: _536  and  _538
REMARK  202  A    between atoms: _538  and  _539
REMARK  203  A    between atoms: _538  and  _541
REMARK  204  A    between atoms: _544  and  _546
REMARK  205  A    between atoms: _546  and  _547
REMARK  206  A    between atoms: _546  and  _549
REMARK  207  A    between atoms: _549  and  _550
REMARK  208  A    between atoms: _552  and  _554
REMARK  209  A    between atoms: _554  and  _555
REMARK  210  A    between atoms: _554  and  _557
REMARK  211  A    between atoms: _557  and  _558
REMARK  212  A    between atoms: _561  and  _563
REMARK  213  A    between atoms: _563  and  _564
REMARK  214  A    between atoms: _563  and  _566
REMARK  215  A    between atoms: _566  and  _567
REMARK  216  A    between atoms: _570  and  _572
REMARK  217  A    between atoms: _572  and  _573
REMARK  218  A    between atoms: _572  and  _575
REMARK  219  A    between atoms: _575  and  _576
REMARK  220  A    between atoms: _576  and  _577
REMARK  221  A    between atoms: _577  and  _578
REMARK  222  A    between atoms: _578  and  _579
REMARK  223  A    between atoms: _583  and  _585
REMARK  224  A    between atoms: _585  and  _586
REMARK  225  A    between atoms: _585  and  _588
REMARK  226  A    between atoms: _588  and  _589
REMARK  227  A    between atoms: _595  and  _597
REMARK  228  A    between atoms: _597  and  _598
REMARK  229  A    between atoms: _597  and  _600
REMARK  230  A    between atoms: _600  and  _601
REMARK  231  A    between atoms: _607  and  _609
REMARK  232  A    between atoms: _609  and  _610
REMARK  233  A    between atoms: _613  and  _615
REMARK  234  A    between atoms: _615  and  _616
REMARK  235  A    between atoms: _615  and  _618
REMARK  236  A    between atoms: _618  and  _619
REMARK  237  A    between atoms: _619  and  _620
REMARK  238  A    between atoms: _622  and  _624
REMARK  239  A    between atoms: _624  and  _625
REMARK  240  A    between atoms: _624  and  _627
REMARK  241  A    between atoms: _627  and  _628
REMARK  242  A    between atoms: _628  and  _629
REMARK  243  A    between atoms: _629  and  _630
REMARK  244  A    between atoms: _630  and  _631
REMARK  245  A    between atoms: _635  and  _637
REMARK  246  A    between atoms: _637  and  _638
REMARK  247  A    between atoms: _637  and  _640
REMARK  248  A    between atoms: _640  and  _641
REMARK  249  A    between atoms: _646  and  _647
REMARK  250  A    between atoms: _649  and  _651
REMARK  251  A    between atoms: _651  and  _652
REMARK  252  A    between atoms: _651  and  _654
REMARK  253  A    between atoms: _654  and  _655
REMARK  254  A    between atoms: _660  and  _662
REMARK  255  A    between atoms: _662  and  _663
REMARK  256  A    between atoms: _662  and  _665
REMARK  257  A    between atoms: _665  and  _666
REMARK  258  A    between atoms: _669  and  _671
REMARK  259  A    between atoms: _671  and  _672
REMARK  260  A    between atoms: _675  and  _677
REMARK  261  A    between atoms: _677  and  _678
REMARK  262  A    between atoms: _677  and  _680
REMARK  263  A    between atoms: _680  and  _681
REMARK  264  A    between atoms: _684  and  _686
REMARK  265  A    between atoms: _686  and  _687
REMARK  266  A    between atoms: _686  and  _689
REMARK  267  A    between atoms: _692  and  _694
REMARK  268  A    between atoms: _694  and  _695
REMARK  269  A    between atoms: _694  and  _697
REMARK  270  A    between atoms: _697  and  _698
REMARK  271  A    between atoms: _698  and  _699
REMARK  272  A    between atoms: _702  and  _704
REMARK  273  A    between atoms: _704  and  _705
REMARK  274  A    between atoms: _704  and  _707
REMARK  275  A    between atoms: _707  and  _708
REMARK  276  A    between atoms: _713  and  _714
REMARK  277  A    between atoms: _716  and  _718
REMARK  278  A    between atoms: _718  and  _719
REMARK  279  A    between atoms: _718  and  _721
REMARK  280  A    between atoms: _721  and  _722
REMARK  281  A    between atoms: _722  and  _723
REMARK  282  A    between atoms: _723  and  _724
REMARK  283  A    between atoms: _733  and  _735
REMARK  284  A    between atoms: _735  and  _736
REMARK  285  A    between atoms: _735  and  _738
REMARK  286  A    between atoms: _738  and  _739
REMARK  287  A    between atoms: _744  and  _745
REMARK  288  A    between atoms: _747  and  _749
REMARK  289  A    between atoms: _749  and  _750
REMARK  290  A    between atoms: _749  and  _752
REMARK  291  A    between atoms: _752  and  _753
REMARK  292  A    between atoms: _756  and  _758
REMARK  293  A    between atoms: _758  and  _759
REMARK  294  A    between atoms: _758  and  _761
REMARK  295  A    between atoms: _761  and  _762
REMARK  296  A    between atoms: _764  and  _766
REMARK  297  A    between atoms: _766  and  _767
REMARK  298  A    between atoms: _766  and  _769
REMARK  299  A    between atoms: _769  and  _770
REMARK  300  A    between atoms: _776  and  _778
REMARK  301  A    between atoms: _778  and  _779
REMARK  302  A    between atoms: _778  and  _781
REMARK  303  A    between atoms: _781  and  _782
REMARK  304  A    between atoms: _782  and  _783
REMARK                            x       y       z     vdW  Elec       q    Type
REMARK                         _______ _______ _______ _____ _____    ______ ____
ROOT
ATOM      1  O   HOH     1      34.192  15.558 -36.898  0.00  0.00    +0.000 OA
ENDROOT
TORSDOF 0
REMARK  Name = ../refined-set-2016/4ca8/4ca8_pocket.pdb
REMARK  304 active torsions:
REMARK  status: ('A' for Active; 'I' for Inactive)
REMARK    1  A    between atoms: _1  and  _3
REMARK    2  A    between atoms: _3  and  _4
REMARK    3  A    between atoms: _3  and  _6
REMARK    4  A    between atoms: _6  and  _7
REMARK    5  A    between atoms: _7  and  _8
REMARK    6  A    between atoms: _11  and  _13
REMARK    7  A    between atoms: _13  and  _14
REMARK    8  A    between atoms: _13  and  _16
REMARK    9  A    between atoms: _16  and  _17
REMARK   10  A    between atoms: _17  and  _18
REMARK   11  A    between atoms: _21  and  _23
REMARK   12  A    between atoms: _23  and  _24
REMARK   13  A    between atoms: _23  and  _26
REMARK   14  A    between atoms: _26  and  _27
REMARK   15  A    between atoms: _32  and  _34
REMARK   16  A    between atoms: _34  and  _35
REMARK   17  A    between atoms: _34  and  _37
REMARK   18  A    between atoms: _37  and  _38
REMARK   19  A    between atoms: _48  and  _50
REMARK   20  A    between atoms: _50  and  _51
REMARK   21  A    between atoms: _50  and  _53
REMARK   22  A    between atoms: _53  and  _54
REMARK   23  A    between atoms: _54  and  _55
REMARK   24  A    between atoms: _60  and  _62
REMARK   25  A    between atoms: _62  and  _63
REMARK   26  A    between atoms: _62  and  _65
REMARK   27  A    between atoms: _65  and  _66
REMARK   28  A    between atoms: _66  and  _67
REMARK   29  A    between atoms: _72  and  _74
REMARK   30  A    between atoms: _74  and  _75
REMARK   31  A    between atoms: _74  and  _77
REMARK   32  A    between atoms: _77  and  _78
REMARK   33  A    between atoms: _80  and  _82
REMARK   34  A    between atoms: _82  and  _83
REMARK   35  A    between atoms: _82  and  _85
REMARK   36  A    between atoms: _85  and  _86
REMARK   37  A    between atoms: _86  and  _87
REMARK   38  A    between atoms: _90  and  _92
REMARK   39  A    between atoms: _92  and  _93
REMARK   40  A    between atoms: _92  and  _95
REMARK   41  A    between atoms: _98  and  _100
REMARK   42  A    between atoms: _100  and  _101
REMARK   43  A    between atoms: _100  and  _103
REMARK   44  A    between atoms: _105  and  _107
REMARK   45  A    between atoms: _107  and  _108
REMARK   46  A    between atoms: _107  and  _110
REMARK   47  A    between atoms: _110  and  _111
REMARK   48  A    between atoms: _116  and  _118
REMARK   49  A    between atoms: _118  and  _119
REMARK   50  A    between atoms: _122  and  _124
REMARK   51  A    between atoms: _124  and  _125
REMARK   52  A    between atoms: _124  and  _127
REMARK   53  A    between atoms: _127  and  _128
REMARK   54  A    between atoms: _130  and  _132
REMARK   55  A    between atoms: _132  and  _133
REMARK   56  A    between atoms: _136  and  _138
REMARK   57  A    between atoms: _138  and  _139
REMARK   58  A    between atoms: _138  and  _141
REMARK   59  A    between atoms: _141  and  _142
REMARK   60  A    between atoms: _152  and  _154
REMARK   61  A    between atoms: _154  and  _155
REMARK   62  A    between atoms: _154  and  _157
REMARK   63  A    between atoms: _157  and  _158
REMARK   64  A    between atoms: _161  and  _163
REMARK   65  A    between atoms: _163  and  _164
REMARK   66  A    between atoms: _163  and  _166
REMARK   67  A    between atoms: _166  and  _167
REMARK   68  A    between atoms: _172  and  _173
REMARK   69  A    between atoms: _175  and  _177
REMARK   70  A    between atoms: _177  and  _178
REMARK   71  A    between atoms: _177  and  _180
REMARK   72  A    between atoms: _180  and  _181
REMARK   73  A    between atoms: _181  and  _182
REMARK   74  A    between atoms: _182  and  _183
REMARK   75  A    between atoms: _192  and  _194
REMARK   76  A    between atoms: _194  and  _195
REMARK   77  A    between atoms: _194  and  _197
REMARK   78  A    between atoms: _197  and  _198
REMARK   79  A    between atoms: _201  and  _203
REMARK   80  A    between atoms: _203  and  _204
REMARK   81  A    between atoms: _203  and  _206
REMARK   82  A    between atoms: _206  and  _207
REMARK   83  A    between atoms: _207  and  _208
REMARK   84  A    between atoms: _208  and  _209
REMARK   85  A    between atoms: _209  and  _210
REMARK   86  A    between atoms: _214  and  _216
REMARK   87  A    between atoms: _216  and  _217
REMARK   88  A    between atoms: _216  and  _219
REMARK   89  A    between atoms: _219  and  _220
REMARK   90  A    between atoms: _220  and  _221
REMARK   91  A    between atoms: _226  and  _228
REMARK   92  A    between atoms: _228  and  _229
REMARK   93  A    between atoms: _228  and  _231
REMARK   94  A    between atoms: _231  and  _232
REMARK   95  A    between atoms: _232  and  _233
REMARK   96  A    between atoms: _233  and  _234
REMARK   97  A    between atoms: _243  and  _245
REMARK   98  A    between atoms: _245  and  _246
REMARK   99  A    between atoms: _245  and  _248
REMARK  100  A    between atoms: _248  and  _249
REMARK  101  A    between atoms: _252  and  _254
REMARK  102  A    between atoms: _254  and  _255
REMARK  103  A    between atoms: _254  and  _257
REMARK  104  A    between atoms: _257  and  _258
REMARK  105  A    between atoms: _258  and  _259
REMARK  106  A    between atoms: _264  and  _266
REMARK  107  A    between atoms: _266  and  _267
REMARK  108  A    between atoms: _266  and  _269
REMARK  109  A    between atoms: _269  and  _270
REMARK  110  A    between atoms: _273  and  _275
REMARK  111  A    between atoms: _275  and  _276
REMARK  112  A    between atoms: _275  and  _278
REMARK  113  A    between atoms: _278  and  _279
REMARK  114  A    between atoms: _279  and  _280
REMARK  115  A    between atoms: _285  and  _287
REMARK  116  A    between atoms: _287  and  _288
REMARK  117  A    between atoms: _287  and  _290
REMARK  118  A    between atoms: _290  and  _291
REMARK  119  A    between atoms: _294  and  _296
REMARK  120  A    between atoms: _296  and  _297
REMARK  121  A    between atoms: _296  and  _299
REMARK  122  A    between atoms: _299  and  _300
REMARK  123  A    between atoms: _306  and  _308
REMARK  124  A    between atoms: _308  and  _309
REMARK  125  A    between atoms: _308  and  _311
REMARK  126  A    between atoms: _311  and  _312
REMARK  127  A    between atoms: _315  and  _317
REMARK  128  A    between atoms: _317  and  _318
REMARK  129  A    between atoms: _317  and  _320
REMARK  130  A    between atoms: _323  and  _325
REMARK  131  A    between atoms: _325  and  _326
REMARK  132  A    between atoms: _325  and  _328
REMARK  133  A    between atoms: _328  and  _329
REMARK  134  A    between atoms: _334  and  _336
REMARK  135  A    between atoms: _347  and  _350
REMARK  136  A    between atoms: _350  and  _351
REMARK  137  A    between atoms: _351  and  _352
REMARK  138  A    between atoms: _357  and  _360
REMARK  139  A    between atoms: _360  and  _361
REMARK  140  A    between atoms: _371  and  _372
REMARK  141  A    between atoms: _380  and  _382
REMARK  142  A    between atoms: _382  and  _383
REMARK  143  A    between atoms: _382  and  _385
REMARK  144  A    between atoms: _385  and  _386
REMARK  145  A    between atoms: _389  and  _391
REMARK  146  A    between atoms: _391  and  _392
REMARK  147  A    between atoms: _391  and  _394
REMARK  148  A    between atoms: _394  and  _395
REMARK  149  A    between atoms: _400  and  _401
REMARK  150  A    between atoms: _403  and  _405
REMARK  151  A    between atoms: _405  and  _406
REMARK  152  A    between atoms: _405  and  _408
REMARK  153  A    between atoms: _408  and  _409
REMARK  154  A    between atoms: _415  and  _417
REMARK  155  A    between atoms: _417  and  _418
REMARK  156  A    between atoms: _417  and  _420
REMARK  157  A    between atoms: _420  and  _421
REMARK  158  A    between atoms: _426  and  _427
REMARK  159  A    between atoms: _429  and  _431
REMARK  160  A    between atoms: _431  and  _432
REMARK  161  A    between atoms: _431  and  _434
REMARK  162  A    between atoms: _434  and  _435
REMARK  163  A    between atoms: _435  and  _436
REMARK  164  A    between atoms: _436  and  _437
REMARK  165  A    between atoms: _446  and  _448
REMARK  166  A    between atoms: _448  and  _449
REMARK  167  A    between atoms: _448  and  _451
REMARK  168  A    between atoms: _451  and  _452
REMARK  169  A    between atoms: _455  and  _457
REMARK  170  A    between atoms: _457  and  _458
REMARK  171  A    between atoms: _460  and  _462
REMARK  172  A    between atoms: _462  and  _463
REMARK  173  A    between atoms: _462  and  _465
REMARK  174  A    between atoms: _465  and  _466
REMARK  175  A    between atoms: _472  and  _473
REMARK  176  A    between atoms: _478  and  _480
REMARK  177  A    between atoms: _480  and  _481
REMARK  178  A    between atoms: _483  and  _485
REMARK  179  A    between atoms: _485  and  _486
REMARK  180  A    between atoms: _485  and  _488
REMARK  181  A    between atoms: _488  and  _489
REMARK  182  A    between atoms: _495  and  _497
REMARK  183  A    between atoms: _497  and  _498
REMARK  184  A    between atoms: _497  and  _500
REMARK  185  A    between atoms: _500  and  _501
REMARK  186  A    between atoms: _506  and  _508
REMARK  187  A    between atoms: _508  and  _509
REMARK  188  A    between atoms: _508  and  _511
REMARK  189  A    between atoms: _511  and  _512
REMARK  190  A    between atoms: _512  and  _513
REMARK  191  A    between atoms: _513  and  _514
REMARK  192  A    between atoms: _514  and  ZN_788
REMARK  193  A    between atoms: _516  and  _518
REMARK  194  A    between atoms: _518  and  _519
REMARK  195  A    between atoms: _522  and  _524
REMARK  196  A    between atoms: _524  and  _525
REMARK  197  A    between atoms: _527  and  _529
REMARK  198  A    between atoms: _529  and  _530
REMARK  199  A    between atoms: _529  and  _532
REMARK  200  A    between atoms: _532  and  _533
REMARK  201  A    between atoms: _536  and  _538
REMARK  202  A    between atoms: _538  and  _539
REMARK  203  A    between atoms: _538  and  _541
REMARK  204  A    between atoms: _544  and  _546
REMARK  205  A    between atoms: _546  and  _547
REMARK  206  A    between atoms: _546  and  _549
REMARK  207  A    between atoms: _549  and  _550
REMARK  208  A    between atoms: _552  and  _554
REMARK  209  A    between atoms: _554  and  _555
REMARK  210  A    between atoms: _554  and  _557
REMARK  211  A    between atoms: _557  and  _558
REMARK  212  A    between atoms: _561  and  _563
REMARK  213  A    between atoms: _563  and  _564
REMARK  214  A    between atoms: _563  and  _566
REMARK  215  A    between atoms: _566  and  _567
REMARK  216  A    between atoms: _570  and  _572
REMARK  217  A    between atoms: _572  and  _573
REMARK  218  A    between atoms: _572  and  _575
REMARK  219  A    between atoms: _575  and  _576
REMARK  220  A    between atoms: _576  and  _577
REMARK  221  A    between atoms: _577  and  _578
REMARK  222  A    between atoms: _578  and  _579
REMARK  223  A    between atoms: _583  and  _585
REMARK  224  A    between atoms: _585  and  _586
REMARK  225  A    between atoms: _585  and  _588
REMARK  226  A    between atoms: _588  and  _589
REMARK  227  A    between atoms: _595  and  _597
REMARK  228  A    between atoms: _597  and  _598
REMARK  229  A    between atoms: _597  and  _600
REMARK  230  A    between atoms: _600  and  _601
REMARK  231  A    between atoms: _607  and  _609
REMARK  232  A    between atoms: _609  and  _610
REMARK  233  A    between atoms: _613  and  _615
REMARK  234  A    between atoms: _615  and  _616
REMARK  235  A    between atoms: _615  and  _618
REMARK  236  A    between atoms: _618  and  _619
REMARK  237  A    between atoms: _619  and  _620
REMARK  238  A    between atoms: _622  and  _624
REMARK  239  A    between atoms: _624  and  _625
REMARK  240  A    between atoms: _624  and  _627
REMARK  241  A    between atoms: _627  and  _628
REMARK  242  A    between atoms: _628  and  _629
REMARK  243  A    between atoms: _629  and  _630
REMARK  244  A    between atoms: _630  and  _631
REMARK  245  A    between atoms: _635  and  _637
REMARK  246  A    between atoms: _637  and  _638
REMARK  247  A    between atoms: _637  and  _640
REMARK  248  A    between atoms: _640  and  _641
REMARK  249  A    between atoms: _646  and  _647
REMARK  250  A    between atoms: _649  and  _651
REMARK  251  A    between atoms: _651  and  _652
REMARK  252  A    between atoms: _651  and  _654
REMARK  253  A    between atoms: _654  and  _655
REMARK  254  A    between atoms: _660  and  _662
REMARK  255  A    between atoms: _662  and  _663
REMARK  256  A    between atoms: _662  and  _665
REMARK  257  A    between atoms: _665  and  _666
REMARK  258  A    between atoms: _669  and  _671
REMARK  259  A    between atoms: _671  and  _672
REMARK  260  A    between atoms: _675  and  _677
REMARK  261  A    between atoms: _677  and  _678
REMARK  262  A    between atoms: _677  and  _680
REMARK  263  A    between atoms: _680  and  _681
REMARK  264  A    between atoms: _684  and  _686
REMARK  265  A    between atoms: _686  and  _687
REMARK  266  A    between atoms: _686  and  _689
REMARK  267  A    between atoms: _692  and  _694
REMARK  268  A    between atoms: _694  and  _695
REMARK  269  A    between atoms: _694  and  _697
REMARK  270  A    between atoms: _697  and  _698
REMARK  271  A    between atoms: _698  and  _699
REMARK  272  A    between atoms: _702  and  _704
REMARK  273  A    between atoms: _704  and  _705
REMARK  274  A    between atoms: _704  and  _707
REMARK  275  A    between atoms: _707  and  _708
REMARK  276  A    between atoms: _713  and  _714
REMARK  277  A    between atoms: _716  and  _718
REMARK  278  A    between atoms: _718  and  _719
REMARK  279  A    between atoms: _718  and  _721
REMARK  280  A    between atoms: _721  and  _722
REMARK  281  A    between atoms: _722  and  _723
REMARK  282  A    between atoms: _723  and  _724
REMARK  283  A    between atoms: _733  and  _735
REMARK  284  A    between atoms: _735  and  _736
REMARK  285  A    between atoms: _735  and  _738
REMARK  286  A    between atoms: _738  and  _739
REMARK  287  A    between atoms: _744  and  _745
REMARK  288  A    between atoms: _747  and  _749
REMARK  289  A    between atoms: _749  and  _750
REMARK  290  A    between atoms: _749  and  _752
REMARK  291  A    between atoms: _752  and  _753
REMARK  292  A    between atoms: _756  and  _758
REMARK  293  A    between atoms: _758  and  _759
REMARK  294  A    between atoms: _758  and  _761
REMARK  295  A    between atoms: _761  and  _762
REMARK  296  A    between atoms: _764  and  _766
REMARK  297  A    between atoms: _766  and  _767
REMARK  298  A    between atoms: _766  and  _769
REMARK  299  A    between atoms: _769  and  _770
REMARK  300  A    between atoms: _776  and  _778
REMARK  301  A    between atoms: _778  and  _779
REMARK  302  A    between atoms: _778  and  _781
REMARK  303  A    between atoms: _781  and  _782
REMARK  304  A    between atoms: _782  and  _783
REMARK                            x       y       z     vdW  Elec       q    Type
REMARK                         _______ _______ _______ _____ _____    ______ ____
ROOT
ATOM      1  O   HOH     1      31.893   5.924 -37.933  0.00  0.00    +0.000 OA
ENDROOT
TORSDOF 0
REMARK  Name = ../refined-set-2016/4ca8/4ca8_pocket.pdb
REMARK  304 active torsions:
REMARK  status: ('A' for Active; 'I' for Inactive)
REMARK    1  A    between atoms: _1  and  _3
REMARK    2  A    between atoms: _3  and  _4
REMARK    3  A    between atoms: _3  and  _6
REMARK    4  A    between atoms: _6  and  _7
REMARK    5  A    between atoms: _7  and  _8
REMARK    6  A    between atoms: _11  and  _13
REMARK    7  A    between atoms: _13  and  _14
REMARK    8  A    between atoms: _13  and  _16
REMARK    9  A    between atoms: _16  and  _17
REMARK   10  A    between atoms: _17  and  _18
REMARK   11  A    between atoms: _21  and  _23
REMARK   12  A    between atoms: _23  and  _24
REMARK   13  A    between atoms: _23  and  _26
REMARK   14  A    between atoms: _26  and  _27
REMARK   15  A    between atoms: _32  and  _34
REMARK   16  A    between atoms: _34  and  _35
REMARK   17  A    between atoms: _34  and  _37
REMARK   18  A    between atoms: _37  and  _38
REMARK   19  A    between atoms: _48  and  _50
REMARK   20  A    between atoms: _50  and  _51
REMARK   21  A    between atoms: _50  and  _53
REMARK   22  A    between atoms: _53  and  _54
REMARK   23  A    between atoms: _54  and  _55
REMARK   24  A    between atoms: _60  and  _62
REMARK   25  A    between atoms: _62  and  _63
REMARK   26  A    between atoms: _62  and  _65
REMARK   27  A    between atoms: _65  and  _66
REMARK   28  A    between atoms: _66  and  _67
REMARK   29  A    between atoms: _72  and  _74
REMARK   30  A    between atoms: _74  and  _75
REMARK   31  A    between atoms: _74  and  _77
REMARK   32  A    between atoms: _77  and  _78
REMARK   33  A    between atoms: _80  and  _82
REMARK   34  A    between atoms: _82  and  _83
REMARK   35  A    between atoms: _82  and  _85
REMARK   36  A    between atoms: _85  and  _86
REMARK   37  A    between atoms: _86  and  _87
REMARK   38  A    between atoms: _90  and  _92
REMARK   39  A    between atoms: _92  and  _93
REMARK   40  A    between atoms: _92  and  _95
REMARK   41  A    between atoms: _98  and  _100
REMARK   42  A    between atoms: _100  and  _101
REMARK   43  A    between atoms: _100  and  _103
REMARK   44  A    between atoms: _105  and  _107
REMARK   45  A    between atoms: _107  and  _108
REMARK   46  A    between atoms: _107  and  _110
REMARK   47  A    between atoms: _110  and  _111
REMARK   48  A    between atoms: _116  and  _118
REMARK   49  A    between atoms: _118  and  _119
REMARK   50  A    between atoms: _122  and  _124
REMARK   51  A    between atoms: _124  and  _125
REMARK   52  A    between atoms: _124  and  _127
REMARK   53  A    between atoms: _127  and  _128
REMARK   54  A    between atoms: _130  and  _132
REMARK   55  A    between atoms: _132  and  _133
REMARK   56  A    between atoms: _136  and  _138
REMARK   57  A    between atoms: _138  and  _139
REMARK   58  A    between atoms: _138  and  _141
REMARK   59  A    between atoms: _141  and  _142
REMARK   60  A    between atoms: _152  and  _154
REMARK   61  A    between atoms: _154  and  _155
REMARK   62  A    between atoms: _154  and  _157
REMARK   63  A    between atoms: _157  and  _158
REMARK   64  A    between atoms: _161  and  _163
REMARK   65  A    between atoms: _163  and  _164
REMARK   66  A    between atoms: _163  and  _166
REMARK   67  A    between atoms: _166  and  _167
REMARK   68  A    between atoms: _172  and  _173
REMARK   69  A    between atoms: _175  and  _177
REMARK   70  A    between atoms: _177  and  _178
REMARK   71  A    between atoms: _177  and  _180
REMARK   72  A    between atoms: _180  and  _181
REMARK   73  A    between atoms: _181  and  _182
REMARK   74  A    between atoms: _182  and  _183
REMARK   75  A    between atoms: _192  and  _194
REMARK   76  A    between atoms: _194  and  _195
REMARK   77  A    between atoms: _194  and  _197
REMARK   78  A    between atoms: _197  and  _198
REMARK   79  A    between atoms: _201  and  _203
REMARK   80  A    between atoms: _203  and  _204
REMARK   81  A    between atoms: _203  and  _206
REMARK   82  A    between atoms: _206  and  _207
REMARK   83  A    between atoms: _207  and  _208
REMARK   84  A    between atoms: _208  and  _209
REMARK   85  A    between atoms: _209  and  _210
REMARK   86  A    between atoms: _214  and  _216
REMARK   87  A    between atoms: _216  and  _217
REMARK   88  A    between atoms: _216  and  _219
REMARK   89  A    between atoms: _219  and  _220
REMARK   90  A    between atoms: _220  and  _221
REMARK   91  A    between atoms: _226  and  _228
REMARK   92  A    between atoms: _228  and  _229
REMARK   93  A    between atoms: _228  and  _231
REMARK   94  A    between atoms: _231  and  _232
REMARK   95  A    between atoms: _232  and  _233
REMARK   96  A    between atoms: _233  and  _234
REMARK   97  A    between atoms: _243  and  _245
REMARK   98  A    between atoms: _245  and  _246
REMARK   99  A    between atoms: _245  and  _248
REMARK  100  A    between atoms: _248  and  _249
REMARK  101  A    between atoms: _252  and  _254
REMARK  102  A    between atoms: _254  and  _255
REMARK  103  A    between atoms: _254  and  _257
REMARK  104  A    between atoms: _257  and  _258
REMARK  105  A    between atoms: _258  and  _259
REMARK  106  A    between atoms: _264  and  _266
REMARK  107  A    between atoms: _266  and  _267
REMARK  108  A    between atoms: _266  and  _269
REMARK  109  A    between atoms: _269  and  _270
REMARK  110  A    between atoms: _273  and  _275
REMARK  111  A    between atoms: _275  and  _276
REMARK  112  A    between atoms: _275  and  _278
REMARK  113  A    between atoms: _278  and  _279
REMARK  114  A    between atoms: _279  and  _280
REMARK  115  A    between atoms: _285  and  _287
REMARK  116  A    between atoms: _287  and  _288
REMARK  117  A    between atoms: _287  and  _290
REMARK  118  A    between atoms: _290  and  _291
REMARK  119  A    between atoms: _294  and  _296
REMARK  120  A    between atoms: _296  and  _297
REMARK  121  A    between atoms: _296  and  _299
REMARK  122  A    between atoms: _299  and  _300
REMARK  123  A    between atoms: _306  and  _308
REMARK  124  A    between atoms: _308  and  _309
REMARK  125  A    between atoms: _308  and  _311
REMARK  126  A    between atoms: _311  and  _312
REMARK  127  A    between atoms: _315  and  _317
REMARK  128  A    between atoms: _317  and  _318
REMARK  129  A    between atoms: _317  and  _320
REMARK  130  A    between atoms: _323  and  _325
REMARK  131  A    between atoms: _325  and  _326
REMARK  132  A    between atoms: _325  and  _328
REMARK  133  A    between atoms: _328  and  _329
REMARK  134  A    between atoms: _334  and  _336
REMARK  135  A    between atoms: _347  and  _350
REMARK  136  A    between atoms: _350  and  _351
REMARK  137  A    between atoms: _351  and  _352
REMARK  138  A    between atoms: _357  and  _360
REMARK  139  A    between atoms: _360  and  _361
REMARK  140  A    between atoms: _371  and  _372
REMARK  141  A    between atoms: _380  and  _382
REMARK  142  A    between atoms: _382  and  _383
REMARK  143  A    between atoms: _382  and  _385
REMARK  144  A    between atoms: _385  and  _386
REMARK  145  A    between atoms: _389  and  _391
REMARK  146  A    between atoms: _391  and  _392
REMARK  147  A    between atoms: _391  and  _394
REMARK  148  A    between atoms: _394  and  _395
REMARK  149  A    between atoms: _400  and  _401
REMARK  150  A    between atoms: _403  and  _405
REMARK  151  A    between atoms: _405  and  _406
REMARK  152  A    between atoms: _405  and  _408
REMARK  153  A    between atoms: _408  and  _409
REMARK  154  A    between atoms: _415  and  _417
REMARK  155  A    between atoms: _417  and  _418
REMARK  156  A    between atoms: _417  and  _420
REMARK  157  A    between atoms: _420  and  _421
REMARK  158  A    between atoms: _426  and  _427
REMARK  159  A    between atoms: _429  and  _431
REMARK  160  A    between atoms: _431  and  _432
REMARK  161  A    between atoms: _431  and  _434
REMARK  162  A    between atoms: _434  and  _435
REMARK  163  A    between atoms: _435  and  _436
REMARK  164  A    between atoms: _436  and  _437
REMARK  165  A    between atoms: _446  and  _448
REMARK  166  A    between atoms: _448  and  _449
REMARK  167  A    between atoms: _448  and  _451
REMARK  168  A    between atoms: _451  and  _452
REMARK  169  A    between atoms: _455  and  _457
REMARK  170  A    between atoms: _457  and  _458
REMARK  171  A    between atoms: _460  and  _462
REMARK  172  A    between atoms: _462  and  _463
REMARK  173  A    between atoms: _462  and  _465
REMARK  174  A    between atoms: _465  and  _466
REMARK  175  A    between atoms: _472  and  _473
REMARK  176  A    between atoms: _478  and  _480
REMARK  177  A    between atoms: _480  and  _481
REMARK  178  A    between atoms: _483  and  _485
REMARK  179  A    between atoms: _485  and  _486
REMARK  180  A    between atoms: _485  and  _488
REMARK  181  A    between atoms: _488  and  _489
REMARK  182  A    between atoms: _495  and  _497
REMARK  183  A    between atoms: _497  and  _498
REMARK  184  A    between atoms: _497  and  _500
REMARK  185  A    between atoms: _500  and  _501
REMARK  186  A    between atoms: _506  and  _508
REMARK  187  A    between atoms: _508  and  _509
REMARK  188  A    between atoms: _508  and  _511
REMARK  189  A    between atoms: _511  and  _512
REMARK  190  A    between atoms: _512  and  _513
REMARK  191  A    between atoms: _513  and  _514
REMARK  192  A    between atoms: _514  and  ZN_788
REMARK  193  A    between atoms: _516  and  _518
REMARK  194  A    between atoms: _518  and  _519
REMARK  195  A    between atoms: _522  and  _524
REMARK  196  A    between atoms: _524  and  _525
REMARK  197  A    between atoms: _527  and  _529
REMARK  198  A    between atoms: _529  and  _530
REMARK  199  A    between atoms: _529  and  _532
REMARK  200  A    between atoms: _532  and  _533
REMARK  201  A    between atoms: _536  and  _538
REMARK  202  A    between atoms: _538  and  _539
REMARK  203  A    between atoms: _538  and  _541
REMARK  204  A    between atoms: _544  and  _546
REMARK  205  A    between atoms: _546  and  _547
REMARK  206  A    between atoms: _546  and  _549
REMARK  207  A    between atoms: _549  and  _550
REMARK  208  A    between atoms: _552  and  _554
REMARK  209  A    between atoms: _554  and  _555
REMARK  210  A    between atoms: _554  and  _557
REMARK  211  A    between atoms: _557  and  _558
REMARK  212  A    between atoms: _561  and  _563
REMARK  213  A    between atoms: _563  and  _564
REMARK  214  A    between atoms: _563  and  _566
REMARK  215  A    between atoms: _566  and  _567
REMARK  216  A    between atoms: _570  and  _572
REMARK  217  A    between atoms: _572  and  _573
REMARK  218  A    between atoms: _572  and  _575
REMARK  219  A    between atoms: _575  and  _576
REMARK  220  A    between atoms: _576  and  _577
REMARK  221  A    between atoms: _577  and  _578
REMARK  222  A    between atoms: _578  and  _579
REMARK  223  A    between atoms: _583  and  _585
REMARK  224  A    between atoms: _585  and  _586
REMARK  225  A    between atoms: _585  and  _588
REMARK  226  A    between atoms: _588  and  _589
REMARK  227  A    between atoms: _595  and  _597
REMARK  228  A    between atoms: _597  and  _598
REMARK  229  A    between atoms: _597  and  _600
REMARK  230  A    between atoms: _600  and  _601
REMARK  231  A    between atoms: _607  and  _609
REMARK  232  A    between atoms: _609  and  _610
REMARK  233  A    between atoms: _613  and  _615
REMARK  234  A    between atoms: _615  and  _616
REMARK  235  A    between atoms: _615  and  _618
REMARK  236  A    between atoms: _618  and  _619
REMARK  237  A    between atoms: _619  and  _620
REMARK  238  A    between atoms: _622  and  _624
REMARK  239  A    between atoms: _624  and  _625
REMARK  240  A    between atoms: _624  and  _627
REMARK  241  A    between atoms: _627  and  _628
REMARK  242  A    between atoms: _628  and  _629
REMARK  243  A    between atoms: _629  and  _630
REMARK  244  A    between atoms: _630  and  _631
REMARK  245  A    between atoms: _635  and  _637
REMARK  246  A    between atoms: _637  and  _638
REMARK  247  A    between atoms: _637  and  _640
REMARK  248  A    between atoms: _640  and  _641
REMARK  249  A    between atoms: _646  and  _647
REMARK  250  A    between atoms: _649  and  _651
REMARK  251  A    between atoms: _651  and  _652
REMARK  252  A    between atoms: _651  and  _654
REMARK  253  A    between atoms: _654  and  _655
REMARK  254  A    between atoms: _660  and  _662
REMARK  255  A    between atoms: _662  and  _663
REMARK  256  A    between atoms: _662  and  _665
REMARK  257  A    between atoms: _665  and  _666
REMARK  258  A    between atoms: _669  and  _671
REMARK  259  A    between atoms: _671  and  _672
REMARK  260  A    between atoms: _675  and  _677
REMARK  261  A    between atoms: _677  and  _678
REMARK  262  A    between atoms: _677  and  _680
REMARK  263  A    between atoms: _680  and  _681
REMARK  264  A    between atoms: _684  and  _686
REMARK  265  A    between atoms: _686  and  _687
REMARK  266  A    between atoms: _686  and  _689
REMARK  267  A    between atoms: _692  and  _694
REMARK  268  A    between atoms: _694  and  _695
REMARK  269  A    between atoms: _694  and  _697
REMARK  270  A    between atoms: _697  and  _698
REMARK  271  A    between atoms: _698  and  _699
REMARK  272  A    between atoms: _702  and  _704
REMARK  273  A    between atoms: _704  and  _705
REMARK  274  A    between atoms: _704  and  _707
REMARK  275  A    between atoms: _707  and  _708
REMARK  276  A    between atoms: _713  and  _714
REMARK  277  A    between atoms: _716  and  _718
REMARK  278  A    between atoms: _718  and  _719
REMARK  279  A    between atoms: _718  and  _721
REMARK  280  A    between atoms: _721  and  _722
REMARK  281  A    between atoms: _722  and  _723
REMARK  282  A    between atoms: _723  and  _724
REMARK  283  A    between atoms: _733  and  _735
REMARK  284  A    between atoms: _735  and  _736
REMARK  285  A    between atoms: _735  and  _738
REMARK  286  A    between atoms: _738  and  _739
REMARK  287  A    between atoms: _744  and  _745
REMARK  288  A    between atoms: _747  and  _749
REMARK  289  A    between atoms: _749  and  _750
REMARK  290  A    between atoms: _749  and  _752
REMARK  291  A    between atoms: _752  and  _753
REMARK  292  A    between atoms: _756  and  _758
REMARK  293  A    between atoms: _758  and  _759
REMARK  294  A    between atoms: _758  and  _761
REMARK  295  A    between atoms: _761  and  _762
REMARK  296  A    between atoms: _764  and  _766
REMARK  297  A    between atoms: _766  and  _767
REMARK  298  A    between atoms: _766  and  _769
REMARK  299  A    between atoms: _769  and  _770
REMARK  300  A    between atoms: _776  and  _778
REMARK  301  A    between atoms: _778  and  _779
REMARK  302  A    between atoms: _778  and  _781
REMARK  303  A    between atoms: _781  and  _782
REMARK  304  A    between atoms: _782  and  _783
REMARK                            x       y       z     vdW  Elec       q    Type
REMARK                         _______ _______ _______ _____ _____    ______ ____
ROOT
ATOM      1  O   HOH     1      30.226  12.390 -45.803  0.00  0.00    +0.000 OA
ENDROOT
TORSDOF 0
REMARK  Name = ../refined-set-2016/4ca8/4ca8_pocket.pdb
REMARK  304 active torsions:
REMARK  status: ('A' for Active; 'I' for Inactive)
REMARK    1  A    between atoms: _1  and  _3
REMARK    2  A    between atoms: _3  and  _4
REMARK    3  A    between atoms: _3  and  _6
REMARK    4  A    between atoms: _6  and  _7
REMARK    5  A    between atoms: _7  and  _8
REMARK    6  A    between atoms: _11  and  _13
REMARK    7  A    between atoms: _13  and  _14
REMARK    8  A    between atoms: _13  and  _16
REMARK    9  A    between atoms: _16  and  _17
REMARK   10  A    between atoms: _17  and  _18
REMARK   11  A    between atoms: _21  and  _23
REMARK   12  A    between atoms: _23  and  _24
REMARK   13  A    between atoms: _23  and  _26
REMARK   14  A    between atoms: _26  and  _27
REMARK   15  A    between atoms: _32  and  _34
REMARK   16  A    between atoms: _34  and  _35
REMARK   17  A    between atoms: _34  and  _37
REMARK   18  A    between atoms: _37  and  _38
REMARK   19  A    between atoms: _48  and  _50
REMARK   20  A    between atoms: _50  and  _51
REMARK   21  A    between atoms: _50  and  _53
REMARK   22  A    between atoms: _53  and  _54
REMARK   23  A    between atoms: _54  and  _55
REMARK   24  A    between atoms: _60  and  _62
REMARK   25  A    between atoms: _62  and  _63
REMARK   26  A    between atoms: _62  and  _65
REMARK   27  A    between atoms: _65  and  _66
REMARK   28  A    between atoms: _66  and  _67
REMARK   29  A    between atoms: _72  and  _74
REMARK   30  A    between atoms: _74  and  _75
REMARK   31  A    between atoms: _74  and  _77
REMARK   32  A    between atoms: _77  and  _78
REMARK   33  A    between atoms: _80  and  _82
REMARK   34  A    between atoms: _82  and  _83
REMARK   35  A    between atoms: _82  and  _85
REMARK   36  A    between atoms: _85  and  _86
REMARK   37  A    between atoms: _86  and  _87
REMARK   38  A    between atoms: _90  and  _92
REMARK   39  A    between atoms: _92  and  _93
REMARK   40  A    between atoms: _92  and  _95
REMARK   41  A    between atoms: _98  and  _100
REMARK   42  A    between atoms: _100  and  _101
REMARK   43  A    between atoms: _100  and  _103
REMARK   44  A    between atoms: _105  and  _107
REMARK   45  A    between atoms: _107  and  _108
REMARK   46  A    between atoms: _107  and  _110
REMARK   47  A    between atoms: _110  and  _111
REMARK   48  A    between atoms: _116  and  _118
REMARK   49  A    between atoms: _118  and  _119
REMARK   50  A    between atoms: _122  and  _124
REMARK   51  A    between atoms: _124  and  _125
REMARK   52  A    between atoms: _124  and  _127
REMARK   53  A    between atoms: _127  and  _128
REMARK   54  A    between atoms: _130  and  _132
REMARK   55  A    between atoms: _132  and  _133
REMARK   56  A    between atoms: _136  and  _138
REMARK   57  A    between atoms: _138  and  _139
REMARK   58  A    between atoms: _138  and  _141
REMARK   59  A    between atoms: _141  and  _142
REMARK   60  A    between atoms: _152  and  _154
REMARK   61  A    between atoms: _154  and  _155
REMARK   62  A    between atoms: _154  and  _157
REMARK   63  A    between atoms: _157  and  _158
REMARK   64  A    between atoms: _161  and  _163
REMARK   65  A    between atoms: _163  and  _164
REMARK   66  A    between atoms: _163  and  _166
REMARK   67  A    between atoms: _166  and  _167
REMARK   68  A    between atoms: _172  and  _173
REMARK   69  A    between atoms: _175  and  _177
REMARK   70  A    between atoms: _177  and  _178
REMARK   71  A    between atoms: _177  and  _180
REMARK   72  A    between atoms: _180  and  _181
REMARK   73  A    between atoms: _181  and  _182
REMARK   74  A    between atoms: _182  and  _183
REMARK   75  A    between atoms: _192  and  _194
REMARK   76  A    between atoms: _194  and  _195
REMARK   77  A    between atoms: _194  and  _197
REMARK   78  A    between atoms: _197  and  _198
REMARK   79  A    between atoms: _201  and  _203
REMARK   80  A    between atoms: _203  and  _204
REMARK   81  A    between atoms: _203  and  _206
REMARK   82  A    between atoms: _206  and  _207
REMARK   83  A    between atoms: _207  and  _208
REMARK   84  A    between atoms: _208  and  _209
REMARK   85  A    between atoms: _209  and  _210
REMARK   86  A    between atoms: _214  and  _216
REMARK   87  A    between atoms: _216  and  _217
REMARK   88  A    between atoms: _216  and  _219
REMARK   89  A    between atoms: _219  and  _220
REMARK   90  A    between atoms: _220  and  _221
REMARK   91  A    between atoms: _226  and  _228
REMARK   92  A    between atoms: _228  and  _229
REMARK   93  A    between atoms: _228  and  _231
REMARK   94  A    between atoms: _231  and  _232
REMARK   95  A    between atoms: _232  and  _233
REMARK   96  A    between atoms: _233  and  _234
REMARK   97  A    between atoms: _243  and  _245
REMARK   98  A    between atoms: _245  and  _246
REMARK   99  A    between atoms: _245  and  _248
REMARK  100  A    between atoms: _248  and  _249
REMARK  101  A    between atoms: _252  and  _254
REMARK  102  A    between atoms: _254  and  _255
REMARK  103  A    between atoms: _254  and  _257
REMARK  104  A    between atoms: _257  and  _258
REMARK  105  A    between atoms: _258  and  _259
REMARK  106  A    between atoms: _264  and  _266
REMARK  107  A    between atoms: _266  and  _267
REMARK  108  A    between atoms: _266  and  _269
REMARK  109  A    between atoms: _269  and  _270
REMARK  110  A    between atoms: _273  and  _275
REMARK  111  A    between atoms: _275  and  _276
REMARK  112  A    between atoms: _275  and  _278
REMARK  113  A    between atoms: _278  and  _279
REMARK  114  A    between atoms: _279  and  _280
REMARK  115  A    between atoms: _285  and  _287
REMARK  116  A    between atoms: _287  and  _288
REMARK  117  A    between atoms: _287  and  _290
REMARK  118  A    between atoms: _290  and  _291
REMARK  119  A    between atoms: _294  and  _296
REMARK  120  A    between atoms: _296  and  _297
REMARK  121  A    between atoms: _296  and  _299
REMARK  122  A    between atoms: _299  and  _300
REMARK  123  A    between atoms: _306  and  _308
REMARK  124  A    between atoms: _308  and  _309
REMARK  125  A    between atoms: _308  and  _311
REMARK  126  A    between atoms: _311  and  _312
REMARK  127  A    between atoms: _315  and  _317
REMARK  128  A    between atoms: _317  and  _318
REMARK  129  A    between atoms: _317  and  _320
REMARK  130  A    between atoms: _323  and  _325
REMARK  131  A    between atoms: _325  and  _326
REMARK  132  A    between atoms: _325  and  _328
REMARK  133  A    between atoms: _328  and  _329
REMARK  134  A    between atoms: _334  and  _336
REMARK  135  A    between atoms: _347  and  _350
REMARK  136  A    between atoms: _350  and  _351
REMARK  137  A    between atoms: _351  and  _352
REMARK  138  A    between atoms: _357  and  _360
REMARK  139  A    between atoms: _360  and  _361
REMARK  140  A    between atoms: _371  and  _372
REMARK  141  A    between atoms: _380  and  _382
REMARK  142  A    between atoms: _382  and  _383
REMARK  143  A    between atoms: _382  and  _385
REMARK  144  A    between atoms: _385  and  _386
REMARK  145  A    between atoms: _389  and  _391
REMARK  146  A    between atoms: _391  and  _392
REMARK  147  A    between atoms: _391  and  _394
REMARK  148  A    between atoms: _394  and  _395
REMARK  149  A    between atoms: _400  and  _401
REMARK  150  A    between atoms: _403  and  _405
REMARK  151  A    between atoms: _405  and  _406
REMARK  152  A    between atoms: _405  and  _408
REMARK  153  A    between atoms: _408  and  _409
REMARK  154  A    between atoms: _415  and  _417
REMARK  155  A    between atoms: _417  and  _418
REMARK  156  A    between atoms: _417  and  _420
REMARK  157  A    between atoms: _420  and  _421
REMARK  158  A    between atoms: _426  and  _427
REMARK  159  A    between atoms: _429  and  _431
REMARK  160  A    between atoms: _431  and  _432
REMARK  161  A    between atoms: _431  and  _434
REMARK  162  A    between atoms: _434  and  _435
REMARK  163  A    between atoms: _435  and  _436
REMARK  164  A    between atoms: _436  and  _437
REMARK  165  A    between atoms: _446  and  _448
REMARK  166  A    between atoms: _448  and  _449
REMARK  167  A    between atoms: _448  and  _451
REMARK  168  A    between atoms: _451  and  _452
REMARK  169  A    between atoms: _455  and  _457
REMARK  170  A    between atoms: _457  and  _458
REMARK  171  A    between atoms: _460  and  _462
REMARK  172  A    between atoms: _462  and  _463
REMARK  173  A    between atoms: _462  and  _465
REMARK  174  A    between atoms: _465  and  _466
REMARK  175  A    between atoms: _472  and  _473
REMARK  176  A    between atoms: _478  and  _480
REMARK  177  A    between atoms: _480  and  _481
REMARK  178  A    between atoms: _483  and  _485
REMARK  179  A    between atoms: _485  and  _486
REMARK  180  A    between atoms: _485  and  _488
REMARK  181  A    between atoms: _488  and  _489
REMARK  182  A    between atoms: _495  and  _497
REMARK  183  A    between atoms: _497  and  _498
REMARK  184  A    between atoms: _497  and  _500
REMARK  185  A    between atoms: _500  and  _501
REMARK  186  A    between atoms: _506  and  _508
REMARK  187  A    between atoms: _508  and  _509
REMARK  188  A    between atoms: _508  and  _511
REMARK  189  A    between atoms: _511  and  _512
REMARK  190  A    between atoms: _512  and  _513
REMARK  191  A    between atoms: _513  and  _514
REMARK  192  A    between atoms: _514  and  ZN_788
REMARK  193  A    between atoms: _516  and  _518
REMARK  194  A    between atoms: _518  and  _519
REMARK  195  A    between atoms: _522  and  _524
REMARK  196  A    between atoms: _524  and  _525
REMARK  197  A    between atoms: _527  and  _529
REMARK  198  A    between atoms: _529  and  _530
REMARK  199  A    between atoms: _529  and  _532
REMARK  200  A    between atoms: _532  and  _533
REMARK  201  A    between atoms: _536  and  _538
REMARK  202  A    between atoms: _538  and  _539
REMARK  203  A    between atoms: _538  and  _541
REMARK  204  A    between atoms: _544  and  _546
REMARK  205  A    between atoms: _546  and  _547
REMARK  206  A    between atoms: _546  and  _549
REMARK  207  A    between atoms: _549  and  _550
REMARK  208  A    between atoms: _552  and  _554
REMARK  209  A    between atoms: _554  and  _555
REMARK  210  A    between atoms: _554  and  _557
REMARK  211  A    between atoms: _557  and  _558
REMARK  212  A    between atoms: _561  and  _563
REMARK  213  A    between atoms: _563  and  _564
REMARK  214  A    between atoms: _563  and  _566
REMARK  215  A    between atoms: _566  and  _567
REMARK  216  A    between atoms: _570  and  _572
REMARK  217  A    between atoms: _572  and  _573
REMARK  218  A    between atoms: _572  and  _575
REMARK  219  A    between atoms: _575  and  _576
REMARK  220  A    between atoms: _576  and  _577
REMARK  221  A    between atoms: _577  and  _578
REMARK  222  A    between atoms: _578  and  _579
REMARK  223  A    between atoms: _583  and  _585
REMARK  224  A    between atoms: _585  and  _586
REMARK  225  A    between atoms: _585  and  _588
REMARK  226  A    between atoms: _588  and  _589
REMARK  227  A    between atoms: _595  and  _597
REMARK  228  A    between atoms: _597  and  _598
REMARK  229  A    between atoms: _597  and  _600
REMARK  230  A    between atoms: _600  and  _601
REMARK  231  A    between atoms: _607  and  _609
REMARK  232  A    between atoms: _609  and  _610
REMARK  233  A    between atoms: _613  and  _615
REMARK  234  A    between atoms: _615  and  _616
REMARK  235  A    between atoms: _615  and  _618
REMARK  236  A    between atoms: _618  and  _619
REMARK  237  A    between atoms: _619  and  _620
REMARK  238  A    between atoms: _622  and  _624
REMARK  239  A    between atoms: _624  and  _625
REMARK  240  A    between atoms: _624  and  _627
REMARK  241  A    between atoms: _627  and  _628
REMARK  242  A    between atoms: _628  and  _629
REMARK  243  A    between atoms: _629  and  _630
REMARK  244  A    between atoms: _630  and  _631
REMARK  245  A    between atoms: _635  and  _637
REMARK  246  A    between atoms: _637  and  _638
REMARK  247  A    between atoms: _637  and  _640
REMARK  248  A    between atoms: _640  and  _641
REMARK  249  A    between atoms: _646  and  _647
REMARK  250  A    between atoms: _649  and  _651
REMARK  251  A    between atoms: _651  and  _652
REMARK  252  A    between atoms: _651  and  _654
REMARK  253  A    between atoms: _654  and  _655
REMARK  254  A    between atoms: _660  and  _662
REMARK  255  A    between atoms: _662  and  _663
REMARK  256  A    between atoms: _662  and  _665
REMARK  257  A    between atoms: _665  and  _666
REMARK  258  A    between atoms: _669  and  _671
REMARK  259  A    between atoms: _671  and  _672
REMARK  260  A    between atoms: _675  and  _677
REMARK  261  A    between atoms: _677  and  _678
REMARK  262  A    between atoms: _677  and  _680
REMARK  263  A    between atoms: _680  and  _681
REMARK  264  A    between atoms: _684  and  _686
REMARK  265  A    between atoms: _686  and  _687
REMARK  266  A    between atoms: _686  and  _689
REMARK  267  A    between atoms: _692  and  _694
REMARK  268  A    between atoms: _694  and  _695
REMARK  269  A    between atoms: _694  and  _697
REMARK  270  A    between atoms: _697  and  _698
REMARK  271  A    between atoms: _698  and  _699
REMARK  272  A    between atoms: _702  and  _704
REMARK  273  A    between atoms: _704  and  _705
REMARK  274  A    between atoms: _704  and  _707
REMARK  275  A    between atoms: _707  and  _708
REMARK  276  A    between atoms: _713  and  _714
REMARK  277  A    between atoms: _716  and  _718
REMARK  278  A    between atoms: _718  and  _719
REMARK  279  A    between atoms: _718  and  _721
REMARK  280  A    between atoms: _721  and  _722
REMARK  281  A    between atoms: _722  and  _723
REMARK  282  A    between atoms: _723  and  _724
REMARK  283  A    between atoms: _733  and  _735
REMARK  284  A    between atoms: _735  and  _736
REMARK  285  A    between atoms: _735  and  _738
REMARK  286  A    between atoms: _738  and  _739
REMARK  287  A    between atoms: _744  and  _745
REMARK  288  A    between atoms: _747  and  _749
REMARK  289  A    between atoms: _749  and  _750
REMARK  290  A    between atoms: _749  and  _752
REMARK  291  A    between atoms: _752  and  _753
REMARK  292  A    between atoms: _756  and  _758
REMARK  293  A    between atoms: _758  and  _759
REMARK  294  A    between atoms: _758  and  _761
REMARK  295  A    between atoms: _761  and  _762
REMARK  296  A    between atoms: _764  and  _766
REMARK  297  A    between atoms: _766  and  _767
REMARK  298  A    between atoms: _766  and  _769
REMARK  299  A    between atoms: _769  and  _770
REMARK  300  A    between atoms: _776  and  _778
REMARK  301  A    between atoms: _778  and  _779
REMARK  302  A    between atoms: _778  and  _781
REMARK  303  A    between atoms: _781  and  _782
REMARK  304  A    between atoms: _782  and  _783
REMARK                            x       y       z     vdW  Elec       q    Type
REMARK                         _______ _______ _______ _____ _____    ______ ____
ROOT
ATOM      1  O   HOH     1      22.369  -1.314 -37.212  0.00  0.00    +0.000 OA
ENDROOT
TORSDOF 0
REMARK  Name = ../refined-set-2016/4ca8/4ca8_pocket.pdb
REMARK  304 active torsions:
REMARK  status: ('A' for Active; 'I' for Inactive)
REMARK    1  A    between atoms: _1  and  _3
REMARK    2  A    between atoms: _3  and  _4
REMARK    3  A    between atoms: _3  and  _6
REMARK    4  A    between atoms: _6  and  _7
REMARK    5  A    between atoms: _7  and  _8
REMARK    6  A    between atoms: _11  and  _13
REMARK    7  A    between atoms: _13  and  _14
REMARK    8  A    between atoms: _13  and  _16
REMARK    9  A    between atoms: _16  and  _17
REMARK   10  A    between atoms: _17  and  _18
REMARK   11  A    between atoms: _21  and  _23
REMARK   12  A    between atoms: _23  and  _24
REMARK   13  A    between atoms: _23  and  _26
REMARK   14  A    between atoms: _26  and  _27
REMARK   15  A    between atoms: _32  and  _34
REMARK   16  A    between atoms: _34  and  _35
REMARK   17  A    between atoms: _34  and  _37
REMARK   18  A    between atoms: _37  and  _38
REMARK   19  A    between atoms: _48  and  _50
REMARK   20  A    between atoms: _50  and  _51
REMARK   21  A    between atoms: _50  and  _53
REMARK   22  A    between atoms: _53  and  _54
REMARK   23  A    between atoms: _54  and  _55
REMARK   24  A    between atoms: _60  and  _62
REMARK   25  A    between atoms: _62  and  _63
REMARK   26  A    between atoms: _62  and  _65
REMARK   27  A    between atoms: _65  and  _66
REMARK   28  A    between atoms: _66  and  _67
REMARK   29  A    between atoms: _72  and  _74
REMARK   30  A    between atoms: _74  and  _75
REMARK   31  A    between atoms: _74  and  _77
REMARK   32  A    between atoms: _77  and  _78
REMARK   33  A    between atoms: _80  and  _82
REMARK   34  A    between atoms: _82  and  _83
REMARK   35  A    between atoms: _82  and  _85
REMARK   36  A    between atoms: _85  and  _86
REMARK   37  A    between atoms: _86  and  _87
REMARK   38  A    between atoms: _90  and  _92
REMARK   39  A    between atoms: _92  and  _93
REMARK   40  A    between atoms: _92  and  _95
REMARK   41  A    between atoms: _98  and  _100
REMARK   42  A    between atoms: _100  and  _101
REMARK   43  A    between atoms: _100  and  _103
REMARK   44  A    between atoms: _105  and  _107
REMARK   45  A    between atoms: _107  and  _108
REMARK   46  A    between atoms: _107  and  _110
REMARK   47  A    between atoms: _110  and  _111
REMARK   48  A    between atoms: _116  and  _118
REMARK   49  A    between atoms: _118  and  _119
REMARK   50  A    between atoms: _122  and  _124
REMARK   51  A    between atoms: _124  and  _125
REMARK   52  A    between atoms: _124  and  _127
REMARK   53  A    between atoms: _127  and  _128
REMARK   54  A    between atoms: _130  and  _132
REMARK   55  A    between atoms: _132  and  _133
REMARK   56  A    between atoms: _136  and  _138
REMARK   57  A    between atoms: _138  and  _139
REMARK   58  A    between atoms: _138  and  _141
REMARK   59  A    between atoms: _141  and  _142
REMARK   60  A    between atoms: _152  and  _154
REMARK   61  A    between atoms: _154  and  _155
REMARK   62  A    between atoms: _154  and  _157
REMARK   63  A    between atoms: _157  and  _158
REMARK   64  A    between atoms: _161  and  _163
REMARK   65  A    between atoms: _163  and  _164
REMARK   66  A    between atoms: _163  and  _166
REMARK   67  A    between atoms: _166  and  _167
REMARK   68  A    between atoms: _172  and  _173
REMARK   69  A    between atoms: _175  and  _177
REMARK   70  A    between atoms: _177  and  _178
REMARK   71  A    between atoms: _177  and  _180
REMARK   72  A    between atoms: _180  and  _181
REMARK   73  A    between atoms: _181  and  _182
REMARK   74  A    between atoms: _182  and  _183
REMARK   75  A    between atoms: _192  and  _194
REMARK   76  A    between atoms: _194  and  _195
REMARK   77  A    between atoms: _194  and  _197
REMARK   78  A    between atoms: _197  and  _198
REMARK   79  A    between atoms: _201  and  _203
REMARK   80  A    between atoms: _203  and  _204
REMARK   81  A    between atoms: _203  and  _206
REMARK   82  A    between atoms: _206  and  _207
REMARK   83  A    between atoms: _207  and  _208
REMARK   84  A    between atoms: _208  and  _209
REMARK   85  A    between atoms: _209  and  _210
REMARK   86  A    between atoms: _214  and  _216
REMARK   87  A    between atoms: _216  and  _217
REMARK   88  A    between atoms: _216  and  _219
REMARK   89  A    between atoms: _219  and  _220
REMARK   90  A    between atoms: _220  and  _221
REMARK   91  A    between atoms: _226  and  _228
REMARK   92  A    between atoms: _228  and  _229
REMARK   93  A    between atoms: _228  and  _231
REMARK   94  A    between atoms: _231  and  _232
REMARK   95  A    between atoms: _232  and  _233
REMARK   96  A    between atoms: _233  and  _234
REMARK   97  A    between atoms: _243  and  _245
REMARK   98  A    between atoms: _245  and  _246
REMARK   99  A    between atoms: _245  and  _248
REMARK  100  A    between atoms: _248  and  _249
REMARK  101  A    between atoms: _252  and  _254
REMARK  102  A    between atoms: _254  and  _255
REMARK  103  A    between atoms: _254  and  _257
REMARK  104  A    between atoms: _257  and  _258
REMARK  105  A    between atoms: _258  and  _259
REMARK  106  A    between atoms: _264  and  _266
REMARK  107  A    between atoms: _266  and  _267
REMARK  108  A    between atoms: _266  and  _269
REMARK  109  A    between atoms: _269  and  _270
REMARK  110  A    between atoms: _273  and  _275
REMARK  111  A    between atoms: _275  and  _276
REMARK  112  A    between atoms: _275  and  _278
REMARK  113  A    between atoms: _278  and  _279
REMARK  114  A    between atoms: _279  and  _280
REMARK  115  A    between atoms: _285  and  _287
REMARK  116  A    between atoms: _287  and  _288
REMARK  117  A    between atoms: _287  and  _290
REMARK  118  A    between atoms: _290  and  _291
REMARK  119  A    between atoms: _294  and  _296
REMARK  120  A    between atoms: _296  and  _297
REMARK  121  A    between atoms: _296  and  _299
REMARK  122  A    between atoms: _299  and  _300
REMARK  123  A    between atoms: _306  and  _308
REMARK  124  A    between atoms: _308  and  _309
REMARK  125  A    between atoms: _308  and  _311
REMARK  126  A    between atoms: _311  and  _312
REMARK  127  A    between atoms: _315  and  _317
REMARK  128  A    between atoms: _317  and  _318
REMARK  129  A    between atoms: _317  and  _320
REMARK  130  A    between atoms: _323  and  _325
REMARK  131  A    between atoms: _325  and  _326
REMARK  132  A    between atoms: _325  and  _328
REMARK  133  A    between atoms: _328  and  _329
REMARK  134  A    between atoms: _334  and  _336
REMARK  135  A    between atoms: _347  and  _350
REMARK  136  A    between atoms: _350  and  _351
REMARK  137  A    between atoms: _351  and  _352
REMARK  138  A    between atoms: _357  and  _360
REMARK  139  A    between atoms: _360  and  _361
REMARK  140  A    between atoms: _371  and  _372
REMARK  141  A    between atoms: _380  and  _382
REMARK  142  A    between atoms: _382  and  _383
REMARK  143  A    between atoms: _382  and  _385
REMARK  144  A    between atoms: _385  and  _386
REMARK  145  A    between atoms: _389  and  _391
REMARK  146  A    between atoms: _391  and  _392
REMARK  147  A    between atoms: _391  and  _394
REMARK  148  A    between atoms: _394  and  _395
REMARK  149  A    between atoms: _400  and  _401
REMARK  150  A    between atoms: _403  and  _405
REMARK  151  A    between atoms: _405  and  _406
REMARK  152  A    between atoms: _405  and  _408
REMARK  153  A    between atoms: _408  and  _409
REMARK  154  A    between atoms: _415  and  _417
REMARK  155  A    between atoms: _417  and  _418
REMARK  156  A    between atoms: _417  and  _420
REMARK  157  A    between atoms: _420  and  _421
REMARK  158  A    between atoms: _426  and  _427
REMARK  159  A    between atoms: _429  and  _431
REMARK  160  A    between atoms: _431  and  _432
REMARK  161  A    between atoms: _431  and  _434
REMARK  162  A    between atoms: _434  and  _435
REMARK  163  A    between atoms: _435  and  _436
REMARK  164  A    between atoms: _436  and  _437
REMARK  165  A    between atoms: _446  and  _448
REMARK  166  A    between atoms: _448  and  _449
REMARK  167  A    between atoms: _448  and  _451
REMARK  168  A    between atoms: _451  and  _452
REMARK  169  A    between atoms: _455  and  _457
REMARK  170  A    between atoms: _457  and  _458
REMARK  171  A    between atoms: _460  and  _462
REMARK  172  A    between atoms: _462  and  _463
REMARK  173  A    between atoms: _462  and  _465
REMARK  174  A    between atoms: _465  and  _466
REMARK  175  A    between atoms: _472  and  _473
REMARK  176  A    between atoms: _478  and  _480
REMARK  177  A    between atoms: _480  and  _481
REMARK  178  A    between atoms: _483  and  _485
REMARK  179  A    between atoms: _485  and  _486
REMARK  180  A    between atoms: _485  and  _488
REMARK  181  A    between atoms: _488  and  _489
REMARK  182  A    between atoms: _495  and  _497
REMARK  183  A    between atoms: _497  and  _498
REMARK  184  A    between atoms: _497  and  _500
REMARK  185  A    between atoms: _500  and  _501
REMARK  186  A    between atoms: _506  and  _508
REMARK  187  A    between atoms: _508  and  _509
REMARK  188  A    between atoms: _508  and  _511
REMARK  189  A    between atoms: _511  and  _512
REMARK  190  A    between atoms: _512  and  _513
REMARK  191  A    between atoms: _513  and  _514
REMARK  192  A    between atoms: _514  and  ZN_788
REMARK  193  A    between atoms: _516  and  _518
REMARK  194  A    between atoms: _518  and  _519
REMARK  195  A    between atoms: _522  and  _524
REMARK  196  A    between atoms: _524  and  _525
REMARK  197  A    between atoms: _527  and  _529
REMARK  198  A    between atoms: _529  and  _530
REMARK  199  A    between atoms: _529  and  _532
REMARK  200  A    between atoms: _532  and  _533
REMARK  201  A    between atoms: _536  and  _538
REMARK  202  A    between atoms: _538  and  _539
REMARK  203  A    between atoms: _538  and  _541
REMARK  204  A    between atoms: _544  and  _546
REMARK  205  A    between atoms: _546  and  _547
REMARK  206  A    between atoms: _546  and  _549
REMARK  207  A    between atoms: _549  and  _550
REMARK  208  A    between atoms: _552  and  _554
REMARK  209  A    between atoms: _554  and  _555
REMARK  210  A    between atoms: _554  and  _557
REMARK  211  A    between atoms: _557  and  _558
REMARK  212  A    between atoms: _561  and  _563
REMARK  213  A    between atoms: _563  and  _564
REMARK  214  A    between atoms: _563  and  _566
REMARK  215  A    between atoms: _566  and  _567
REMARK  216  A    between atoms: _570  and  _572
REMARK  217  A    between atoms: _572  and  _573
REMARK  218  A    between atoms: _572  and  _575
REMARK  219  A    between atoms: _575  and  _576
REMARK  220  A    between atoms: _576  and  _577
REMARK  221  A    between atoms: _577  and  _578
REMARK  222  A    between atoms: _578  and  _579
REMARK  223  A    between atoms: _583  and  _585
REMARK  224  A    between atoms: _585  and  _586
REMARK  225  A    between atoms: _585  and  _588
REMARK  226  A    between atoms: _588  and  _589
REMARK  227  A    between atoms: _595  and  _597
REMARK  228  A    between atoms: _597  and  _598
REMARK  229  A    between atoms: _597  and  _600
REMARK  230  A    between atoms: _600  and  _601
REMARK  231  A    between atoms: _607  and  _609
REMARK  232  A    between atoms: _609  and  _610
REMARK  233  A    between atoms: _613  and  _615
REMARK  234  A    between atoms: _615  and  _616
REMARK  235  A    between atoms: _615  and  _618
REMARK  236  A    between atoms: _618  and  _619
REMARK  237  A    between atoms: _619  and  _620
REMARK  238  A    between atoms: _622  and  _624
REMARK  239  A    between atoms: _624  and  _625
REMARK  240  A    between atoms: _624  and  _627
REMARK  241  A    between atoms: _627  and  _628
REMARK  242  A    between atoms: _628  and  _629
REMARK  243  A    between atoms: _629  and  _630
REMARK  244  A    between atoms: _630  and  _631
REMARK  245  A    between atoms: _635  and  _637
REMARK  246  A    between atoms: _637  and  _638
REMARK  247  A    between atoms: _637  and  _640
REMARK  248  A    between atoms: _640  and  _641
REMARK  249  A    between atoms: _646  and  _647
REMARK  250  A    between atoms: _649  and  _651
REMARK  251  A    between atoms: _651  and  _652
REMARK  252  A    between atoms: _651  and  _654
REMARK  253  A    between atoms: _654  and  _655
REMARK  254  A    between atoms: _660  and  _662
REMARK  255  A    between atoms: _662  and  _663
REMARK  256  A    between atoms: _662  and  _665
REMARK  257  A    between atoms: _665  and  _666
REMARK  258  A    between atoms: _669  and  _671
REMARK  259  A    between atoms: _671  and  _672
REMARK  260  A    between atoms: _675  and  _677
REMARK  261  A    between atoms: _677  and  _678
REMARK  262  A    between atoms: _677  and  _680
REMARK  263  A    between atoms: _680  and  _681
REMARK  264  A    between atoms: _684  and  _686
REMARK  265  A    between atoms: _686  and  _687
REMARK  266  A    between atoms: _686  and  _689
REMARK  267  A    between atoms: _692  and  _694
REMARK  268  A    between atoms: _694  and  _695
REMARK  269  A    between atoms: _694  and  _697
REMARK  270  A    between atoms: _697  and  _698
REMARK  271  A    between atoms: _698  and  _699
REMARK  272  A    between atoms: _702  and  _704
REMARK  273  A    between atoms: _704  and  _705
REMARK  274  A    between atoms: _704  and  _707
REMARK  275  A    between atoms: _707  and  _708
REMARK  276  A    between atoms: _713  and  _714
REMARK  277  A    between atoms: _716  and  _718
REMARK  278  A    between atoms: _718  and  _719
REMARK  279  A    between atoms: _718  and  _721
REMARK  280  A    between atoms: _721  and  _722
REMARK  281  A    between atoms: _722  and  _723
REMARK  282  A    between atoms: _723  and  _724
REMARK  283  A    between atoms: _733  and  _735
REMARK  284  A    between atoms: _735  and  _736
REMARK  285  A    between atoms: _735  and  _738
REMARK  286  A    between atoms: _738  and  _739
REMARK  287  A    between atoms: _744  and  _745
REMARK  288  A    between atoms: _747  and  _749
REMARK  289  A    between atoms: _749  and  _750
REMARK  290  A    between atoms: _749  and  _752
REMARK  291  A    between atoms: _752  and  _753
REMARK  292  A    between atoms: _756  and  _758
REMARK  293  A    between atoms: _758  and  _759
REMARK  294  A    between atoms: _758  and  _761
REMARK  295  A    between atoms: _761  and  _762
REMARK  296  A    between atoms: _764  and  _766
REMARK  297  A    between atoms: _766  and  _767
REMARK  298  A    between atoms: _766  and  _769
REMARK  299  A    between atoms: _769  and  _770
REMARK  300  A    between atoms: _776  and  _778
REMARK  301  A    between atoms: _778  and  _779
REMARK  302  A    between atoms: _778  and  _781
REMARK  303  A    between atoms: _781  and  _782
REMARK  304  A    between atoms: _782  and  _783
REMARK                            x       y       z     vdW  Elec       q    Type
REMARK                         _______ _______ _______ _____ _____    ______ ____
ROOT
ATOM      1  O   HOH     1      22.765   4.005 -35.785  0.00  0.00    +0.000 OA
ENDROOT
TORSDOF 0
REMARK  Name = ../refined-set-2016/4ca8/4ca8_pocket.pdb
REMARK  304 active torsions:
REMARK  status: ('A' for Active; 'I' for Inactive)
REMARK    1  A    between atoms: _1  and  _3
REMARK    2  A    between atoms: _3  and  _4
REMARK    3  A    between atoms: _3  and  _6
REMARK    4  A    between atoms: _6  and  _7
REMARK    5  A    between atoms: _7  and  _8
REMARK    6  A    between atoms: _11  and  _13
REMARK    7  A    between atoms: _13  and  _14
REMARK    8  A    between atoms: _13  and  _16
REMARK    9  A    between atoms: _16  and  _17
REMARK   10  A    between atoms: _17  and  _18
REMARK   11  A    between atoms: _21  and  _23
REMARK   12  A    between atoms: _23  and  _24
REMARK   13  A    between atoms: _23  and  _26
REMARK   14  A    between atoms: _26  and  _27
REMARK   15  A    between atoms: _32  and  _34
REMARK   16  A    between atoms: _34  and  _35
REMARK   17  A    between atoms: _34  and  _37
REMARK   18  A    between atoms: _37  and  _38
REMARK   19  A    between atoms: _48  and  _50
REMARK   20  A    between atoms: _50  and  _51
REMARK   21  A    between atoms: _50  and  _53
REMARK   22  A    between atoms: _53  and  _54
REMARK   23  A    between atoms: _54  and  _55
REMARK   24  A    between atoms: _60  and  _62
REMARK   25  A    between atoms: _62  and  _63
REMARK   26  A    between atoms: _62  and  _65
REMARK   27  A    between atoms: _65  and  _66
REMARK   28  A    between atoms: _66  and  _67
REMARK   29  A    between atoms: _72  and  _74
REMARK   30  A    between atoms: _74  and  _75
REMARK   31  A    between atoms: _74  and  _77
REMARK   32  A    between atoms: _77  and  _78
REMARK   33  A    between atoms: _80  and  _82
REMARK   34  A    between atoms: _82  and  _83
REMARK   35  A    between atoms: _82  and  _85
REMARK   36  A    between atoms: _85  and  _86
REMARK   37  A    between atoms: _86  and  _87
REMARK   38  A    between atoms: _90  and  _92
REMARK   39  A    between atoms: _92  and  _93
REMARK   40  A    between atoms: _92  and  _95
REMARK   41  A    between atoms: _98  and  _100
REMARK   42  A    between atoms: _100  and  _101
REMARK   43  A    between atoms: _100  and  _103
REMARK   44  A    between atoms: _105  and  _107
REMARK   45  A    between atoms: _107  and  _108
REMARK   46  A    between atoms: _107  and  _110
REMARK   47  A    between atoms: _110  and  _111
REMARK   48  A    between atoms: _116  and  _118
REMARK   49  A    between atoms: _118  and  _119
REMARK   50  A    between atoms: _122  and  _124
REMARK   51  A    between atoms: _124  and  _125
REMARK   52  A    between atoms: _124  and  _127
REMARK   53  A    between atoms: _127  and  _128
REMARK   54  A    between atoms: _130  and  _132
REMARK   55  A    between atoms: _132  and  _133
REMARK   56  A    between atoms: _136  and  _138
REMARK   57  A    between atoms: _138  and  _139
REMARK   58  A    between atoms: _138  and  _141
REMARK   59  A    between atoms: _141  and  _142
REMARK   60  A    between atoms: _152  and  _154
REMARK   61  A    between atoms: _154  and  _155
REMARK   62  A    between atoms: _154  and  _157
REMARK   63  A    between atoms: _157  and  _158
REMARK   64  A    between atoms: _161  and  _163
REMARK   65  A    between atoms: _163  and  _164
REMARK   66  A    between atoms: _163  and  _166
REMARK   67  A    between atoms: _166  and  _167
REMARK   68  A    between atoms: _172  and  _173
REMARK   69  A    between atoms: _175  and  _177
REMARK   70  A    between atoms: _177  and  _178
REMARK   71  A    between atoms: _177  and  _180
REMARK   72  A    between atoms: _180  and  _181
REMARK   73  A    between atoms: _181  and  _182
REMARK   74  A    between atoms: _182  and  _183
REMARK   75  A    between atoms: _192  and  _194
REMARK   76  A    between atoms: _194  and  _195
REMARK   77  A    between atoms: _194  and  _197
REMARK   78  A    between atoms: _197  and  _198
REMARK   79  A    between atoms: _201  and  _203
REMARK   80  A    between atoms: _203  and  _204
REMARK   81  A    between atoms: _203  and  _206
REMARK   82  A    between atoms: _206  and  _207
REMARK   83  A    between atoms: _207  and  _208
REMARK   84  A    between atoms: _208  and  _209
REMARK   85  A    between atoms: _209  and  _210
REMARK   86  A    between atoms: _214  and  _216
REMARK   87  A    between atoms: _216  and  _217
REMARK   88  A    between atoms: _216  and  _219
REMARK   89  A    between atoms: _219  and  _220
REMARK   90  A    between atoms: _220  and  _221
REMARK   91  A    between atoms: _226  and  _228
REMARK   92  A    between atoms: _228  and  _229
REMARK   93  A    between atoms: _228  and  _231
REMARK   94  A    between atoms: _231  and  _232
REMARK   95  A    between atoms: _232  and  _233
REMARK   96  A    between atoms: _233  and  _234
REMARK   97  A    between atoms: _243  and  _245
REMARK   98  A    between atoms: _245  and  _246
REMARK   99  A    between atoms: _245  and  _248
REMARK  100  A    between atoms: _248  and  _249
REMARK  101  A    between atoms: _252  and  _254
REMARK  102  A    between atoms: _254  and  _255
REMARK  103  A    between atoms: _254  and  _257
REMARK  104  A    between atoms: _257  and  _258
REMARK  105  A    between atoms: _258  and  _259
REMARK  106  A    between atoms: _264  and  _266
REMARK  107  A    between atoms: _266  and  _267
REMARK  108  A    between atoms: _266  and  _269
REMARK  109  A    between atoms: _269  and  _270
REMARK  110  A    between atoms: _273  and  _275
REMARK  111  A    between atoms: _275  and  _276
REMARK  112  A    between atoms: _275  and  _278
REMARK  113  A    between atoms: _278  and  _279
REMARK  114  A    between atoms: _279  and  _280
REMARK  115  A    between atoms: _285  and  _287
REMARK  116  A    between atoms: _287  and  _288
REMARK  117  A    between atoms: _287  and  _290
REMARK  118  A    between atoms: _290  and  _291
REMARK  119  A    between atoms: _294  and  _296
REMARK  120  A    between atoms: _296  and  _297
REMARK  121  A    between atoms: _296  and  _299
REMARK  122  A    between atoms: _299  and  _300
REMARK  123  A    between atoms: _306  and  _308
REMARK  124  A    between atoms: _308  and  _309
REMARK  125  A    between atoms: _308  and  _311
REMARK  126  A    between atoms: _311  and  _312
REMARK  127  A    between atoms: _315  and  _317
REMARK  128  A    between atoms: _317  and  _318
REMARK  129  A    between atoms: _317  and  _320
REMARK  130  A    between atoms: _323  and  _325
REMARK  131  A    between atoms: _325  and  _326
REMARK  132  A    between atoms: _325  and  _328
REMARK  133  A    between atoms: _328  and  _329
REMARK  134  A    between atoms: _334  and  _336
REMARK  135  A    between atoms: _347  and  _350
REMARK  136  A    between atoms: _350  and  _351
REMARK  137  A    between atoms: _351  and  _352
REMARK  138  A    between atoms: _357  and  _360
REMARK  139  A    between atoms: _360  and  _361
REMARK  140  A    between atoms: _371  and  _372
REMARK  141  A    between atoms: _380  and  _382
REMARK  142  A    between atoms: _382  and  _383
REMARK  143  A    between atoms: _382  and  _385
REMARK  144  A    between atoms: _385  and  _386
REMARK  145  A    between atoms: _389  and  _391
REMARK  146  A    between atoms: _391  and  _392
REMARK  147  A    between atoms: _391  and  _394
REMARK  148  A    between atoms: _394  and  _395
REMARK  149  A    between atoms: _400  and  _401
REMARK  150  A    between atoms: _403  and  _405
REMARK  151  A    between atoms: _405  and  _406
REMARK  152  A    between atoms: _405  and  _408
REMARK  153  A    between atoms: _408  and  _409
REMARK  154  A    between atoms: _415  and  _417
REMARK  155  A    between atoms: _417  and  _418
REMARK  156  A    between atoms: _417  and  _420
REMARK  157  A    between atoms: _420  and  _421
REMARK  158  A    between atoms: _426  and  _427
REMARK  159  A    between atoms: _429  and  _431
REMARK  160  A    between atoms: _431  and  _432
REMARK  161  A    between atoms: _431  and  _434
REMARK  162  A    between atoms: _434  and  _435
REMARK  163  A    between atoms: _435  and  _436
REMARK  164  A    between atoms: _436  and  _437
REMARK  165  A    between atoms: _446  and  _448
REMARK  166  A    between atoms: _448  and  _449
REMARK  167  A    between atoms: _448  and  _451
REMARK  168  A    between atoms: _451  and  _452
REMARK  169  A    between atoms: _455  and  _457
REMARK  170  A    between atoms: _457  and  _458
REMARK  171  A    between atoms: _460  and  _462
REMARK  172  A    between atoms: _462  and  _463
REMARK  173  A    between atoms: _462  and  _465
REMARK  174  A    between atoms: _465  and  _466
REMARK  175  A    between atoms: _472  and  _473
REMARK  176  A    between atoms: _478  and  _480
REMARK  177  A    between atoms: _480  and  _481
REMARK  178  A    between atoms: _483  and  _485
REMARK  179  A    between atoms: _485  and  _486
REMARK  180  A    between atoms: _485  and  _488
REMARK  181  A    between atoms: _488  and  _489
REMARK  182  A    between atoms: _495  and  _497
REMARK  183  A    between atoms: _497  and  _498
REMARK  184  A    between atoms: _497  and  _500
REMARK  185  A    between atoms: _500  and  _501
REMARK  186  A    between atoms: _506  and  _508
REMARK  187  A    between atoms: _508  and  _509
REMARK  188  A    between atoms: _508  and  _511
REMARK  189  A    between atoms: _511  and  _512
REMARK  190  A    between atoms: _512  and  _513
REMARK  191  A    between atoms: _513  and  _514
REMARK  192  A    between atoms: _514  and  ZN_788
REMARK  193  A    between atoms: _516  and  _518
REMARK  194  A    between atoms: _518  and  _519
REMARK  195  A    between atoms: _522  and  _524
REMARK  196  A    between atoms: _524  and  _525
REMARK  197  A    between atoms: _527  and  _529
REMARK  198  A    between atoms: _529  and  _530
REMARK  199  A    between atoms: _529  and  _532
REMARK  200  A    between atoms: _532  and  _533
REMARK  201  A    between atoms: _536  and  _538
REMARK  202  A    between atoms: _538  and  _539
REMARK  203  A    between atoms: _538  and  _541
REMARK  204  A    between atoms: _544  and  _546
REMARK  205  A    between atoms: _546  and  _547
REMARK  206  A    between atoms: _546  and  _549
REMARK  207  A    between atoms: _549  and  _550
REMARK  208  A    between atoms: _552  and  _554
REMARK  209  A    between atoms: _554  and  _555
REMARK  210  A    between atoms: _554  and  _557
REMARK  211  A    between atoms: _557  and  _558
REMARK  212  A    between atoms: _561  and  _563
REMARK  213  A    between atoms: _563  and  _564
REMARK  214  A    between atoms: _563  and  _566
REMARK  215  A    between atoms: _566  and  _567
REMARK  216  A    between atoms: _570  and  _572
REMARK  217  A    between atoms: _572  and  _573
REMARK  218  A    between atoms: _572  and  _575
REMARK  219  A    between atoms: _575  and  _576
REMARK  220  A    between atoms: _576  and  _577
REMARK  221  A    between atoms: _577  and  _578
REMARK  222  A    between atoms: _578  and  _579
REMARK  223  A    between atoms: _583  and  _585
REMARK  224  A    between atoms: _585  and  _586
REMARK  225  A    between atoms: _585  and  _588
REMARK  226  A    between atoms: _588  and  _589
REMARK  227  A    between atoms: _595  and  _597
REMARK  228  A    between atoms: _597  and  _598
REMARK  229  A    between atoms: _597  and  _600
REMARK  230  A    between atoms: _600  and  _601
REMARK  231  A    between atoms: _607  and  _609
REMARK  232  A    between atoms: _609  and  _610
REMARK  233  A    between atoms: _613  and  _615
REMARK  234  A    between atoms: _615  and  _616
REMARK  235  A    between atoms: _615  and  _618
REMARK  236  A    between atoms: _618  and  _619
REMARK  237  A    between atoms: _619  and  _620
REMARK  238  A    between atoms: _622  and  _624
REMARK  239  A    between atoms: _624  and  _625
REMARK  240  A    between atoms: _624  and  _627
REMARK  241  A    between atoms: _627  and  _628
REMARK  242  A    between atoms: _628  and  _629
REMARK  243  A    between atoms: _629  and  _630
REMARK  244  A    between atoms: _630  and  _631
REMARK  245  A    between atoms: _635  and  _637
REMARK  246  A    between atoms: _637  and  _638
REMARK  247  A    between atoms: _637  and  _640
REMARK  248  A    between atoms: _640  and  _641
REMARK  249  A    between atoms: _646  and  _647
REMARK  250  A    between atoms: _649  and  _651
REMARK  251  A    between atoms: _651  and  _652
REMARK  252  A    between atoms: _651  and  _654
REMARK  253  A    between atoms: _654  and  _655
REMARK  254  A    between atoms: _660  and  _662
REMARK  255  A    between atoms: _662  and  _663
REMARK  256  A    between atoms: _662  and  _665
REMARK  257  A    between atoms: _665  and  _666
REMARK  258  A    between atoms: _669  and  _671
REMARK  259  A    between atoms: _671  and  _672
REMARK  260  A    between atoms: _675  and  _677
REMARK  261  A    between atoms: _677  and  _678
REMARK  262  A    between atoms: _677  and  _680
REMARK  263  A    between atoms: _680  and  _681
REMARK  264  A    between atoms: _684  and  _686
REMARK  265  A    between atoms: _686  and  _687
REMARK  266  A    between atoms: _686  and  _689
REMARK  267  A    between atoms: _692  and  _694
REMARK  268  A    between atoms: _694  and  _695
REMARK  269  A    between atoms: _694  and  _697
REMARK  270  A    between atoms: _697  and  _698
REMARK  271  A    between atoms: _698  and  _699
REMARK  272  A    between atoms: _702  and  _704
REMARK  273  A    between atoms: _704  and  _705
REMARK  274  A    between atoms: _704  and  _707
REMARK  275  A    between atoms: _707  and  _708
REMARK  276  A    between atoms: _713  and  _714
REMARK  277  A    between atoms: _716  and  _718
REMARK  278  A    between atoms: _718  and  _719
REMARK  279  A    between atoms: _718  and  _721
REMARK  280  A    between atoms: _721  and  _722
REMARK  281  A    between atoms: _722  and  _723
REMARK  282  A    between atoms: _723  and  _724
REMARK  283  A    between atoms: _733  and  _735
REMARK  284  A    between atoms: _735  and  _736
REMARK  285  A    between atoms: _735  and  _738
REMARK  286  A    between atoms: _738  and  _739
REMARK  287  A    between atoms: _744  and  _745
REMARK  288  A    between atoms: _747  and  _749
REMARK  289  A    between atoms: _749  and  _750
REMARK  290  A    between atoms: _749  and  _752
REMARK  291  A    between atoms: _752  and  _753
REMARK  292  A    between atoms: _756  and  _758
REMARK  293  A    between atoms: _758  and  _759
REMARK  294  A    between atoms: _758  and  _761
REMARK  295  A    between atoms: _761  and  _762
REMARK  296  A    between atoms: _764  and  _766
REMARK  297  A    between atoms: _766  and  _767
REMARK  298  A    between atoms: _766  and  _769
REMARK  299  A    between atoms: _769  and  _770
REMARK  300  A    between atoms: _776  and  _778
REMARK  301  A    between atoms: _778  and  _779
REMARK  302  A    between atoms: _778  and  _781
REMARK  303  A    between atoms: _781  and  _782
REMARK  304  A    between atoms: _782  and  _783
REMARK                            x       y       z     vdW  Elec       q    Type
REMARK                         _______ _______ _______ _____ _____    ______ ____
ROOT
ATOM      1  O   HOH     1      25.717  -2.718 -38.166  0.00  0.00    +0.000 OA
ENDROOT
TORSDOF 0
REMARK  Name = ../refined-set-2016/4ca8/4ca8_pocket.pdb
REMARK  304 active torsions:
REMARK  status: ('A' for Active; 'I' for Inactive)
REMARK    1  A    between atoms: _1  and  _3
REMARK    2  A    between atoms: _3  and  _4
REMARK    3  A    between atoms: _3  and  _6
REMARK    4  A    between atoms: _6  and  _7
REMARK    5  A    between atoms: _7  and  _8
REMARK    6  A    between atoms: _11  and  _13
REMARK    7  A    between atoms: _13  and  _14
REMARK    8  A    between atoms: _13  and  _16
REMARK    9  A    between atoms: _16  and  _17
REMARK   10  A    between atoms: _17  and  _18
REMARK   11  A    between atoms: _21  and  _23
REMARK   12  A    between atoms: _23  and  _24
REMARK   13  A    between atoms: _23  and  _26
REMARK   14  A    between atoms: _26  and  _27
REMARK   15  A    between atoms: _32  and  _34
REMARK   16  A    between atoms: _34  and  _35
REMARK   17  A    between atoms: _34  and  _37
REMARK   18  A    between atoms: _37  and  _38
REMARK   19  A    between atoms: _48  and  _50
REMARK   20  A    between atoms: _50  and  _51
REMARK   21  A    between atoms: _50  and  _53
REMARK   22  A    between atoms: _53  and  _54
REMARK   23  A    between atoms: _54  and  _55
REMARK   24  A    between atoms: _60  and  _62
REMARK   25  A    between atoms: _62  and  _63
REMARK   26  A    between atoms: _62  and  _65
REMARK   27  A    between atoms: _65  and  _66
REMARK   28  A    between atoms: _66  and  _67
REMARK   29  A    between atoms: _72  and  _74
REMARK   30  A    between atoms: _74  and  _75
REMARK   31  A    between atoms: _74  and  _77
REMARK   32  A    between atoms: _77  and  _78
REMARK   33  A    between atoms: _80  and  _82
REMARK   34  A    between atoms: _82  and  _83
REMARK   35  A    between atoms: _82  and  _85
REMARK   36  A    between atoms: _85  and  _86
REMARK   37  A    between atoms: _86  and  _87
REMARK   38  A    between atoms: _90  and  _92
REMARK   39  A    between atoms: _92  and  _93
REMARK   40  A    between atoms: _92  and  _95
REMARK   41  A    between atoms: _98  and  _100
REMARK   42  A    between atoms: _100  and  _101
REMARK   43  A    between atoms: _100  and  _103
REMARK   44  A    between atoms: _105  and  _107
REMARK   45  A    between atoms: _107  and  _108
REMARK   46  A    between atoms: _107  and  _110
REMARK   47  A    between atoms: _110  and  _111
REMARK   48  A    between atoms: _116  and  _118
REMARK   49  A    between atoms: _118  and  _119
REMARK   50  A    between atoms: _122  and  _124
REMARK   51  A    between atoms: _124  and  _125
REMARK   52  A    between atoms: _124  and  _127
REMARK   53  A    between atoms: _127  and  _128
REMARK   54  A    between atoms: _130  and  _132
REMARK   55  A    between atoms: _132  and  _133
REMARK   56  A    between atoms: _136  and  _138
REMARK   57  A    between atoms: _138  and  _139
REMARK   58  A    between atoms: _138  and  _141
REMARK   59  A    between atoms: _141  and  _142
REMARK   60  A    between atoms: _152  and  _154
REMARK   61  A    between atoms: _154  and  _155
REMARK   62  A    between atoms: _154  and  _157
REMARK   63  A    between atoms: _157  and  _158
REMARK   64  A    between atoms: _161  and  _163
REMARK   65  A    between atoms: _163  and  _164
REMARK   66  A    between atoms: _163  and  _166
REMARK   67  A    between atoms: _166  and  _167
REMARK   68  A    between atoms: _172  and  _173
REMARK   69  A    between atoms: _175  and  _177
REMARK   70  A    between atoms: _177  and  _178
REMARK   71  A    between atoms: _177  and  _180
REMARK   72  A    between atoms: _180  and  _181
REMARK   73  A    between atoms: _181  and  _182
REMARK   74  A    between atoms: _182  and  _183
REMARK   75  A    between atoms: _192  and  _194
REMARK   76  A    between atoms: _194  and  _195
REMARK   77  A    between atoms: _194  and  _197
REMARK   78  A    between atoms: _197  and  _198
REMARK   79  A    between atoms: _201  and  _203
REMARK   80  A    between atoms: _203  and  _204
REMARK   81  A    between atoms: _203  and  _206
REMARK   82  A    between atoms: _206  and  _207
REMARK   83  A    between atoms: _207  and  _208
REMARK   84  A    between atoms: _208  and  _209
REMARK   85  A    between atoms: _209  and  _210
REMARK   86  A    between atoms: _214  and  _216
REMARK   87  A    between atoms: _216  and  _217
REMARK   88  A    between atoms: _216  and  _219
REMARK   89  A    between atoms: _219  and  _220
REMARK   90  A    between atoms: _220  and  _221
REMARK   91  A    between atoms: _226  and  _228
REMARK   92  A    between atoms: _228  and  _229
REMARK   93  A    between atoms: _228  and  _231
REMARK   94  A    between atoms: _231  and  _232
REMARK   95  A    between atoms: _232  and  _233
REMARK   96  A    between atoms: _233  and  _234
REMARK   97  A    between atoms: _243  and  _245
REMARK   98  A    between atoms: _245  and  _246
REMARK   99  A    between atoms: _245  and  _248
REMARK  100  A    between atoms: _248  and  _249
REMARK  101  A    between atoms: _252  and  _254
REMARK  102  A    between atoms: _254  and  _255
REMARK  103  A    between atoms: _254  and  _257
REMARK  104  A    between atoms: _257  and  _258
REMARK  105  A    between atoms: _258  and  _259
REMARK  106  A    between atoms: _264  and  _266
REMARK  107  A    between atoms: _266  and  _267
REMARK  108  A    between atoms: _266  and  _269
REMARK  109  A    between atoms: _269  and  _270
REMARK  110  A    between atoms: _273  and  _275
REMARK  111  A    between atoms: _275  and  _276
REMARK  112  A    between atoms: _275  and  _278
REMARK  113  A    between atoms: _278  and  _279
REMARK  114  A    between atoms: _279  and  _280
REMARK  115  A    between atoms: _285  and  _287
REMARK  116  A    between atoms: _287  and  _288
REMARK  117  A    between atoms: _287  and  _290
REMARK  118  A    between atoms: _290  and  _291
REMARK  119  A    between atoms: _294  and  _296
REMARK  120  A    between atoms: _296  and  _297
REMARK  121  A    between atoms: _296  and  _299
REMARK  122  A    between atoms: _299  and  _300
REMARK  123  A    between atoms: _306  and  _308
REMARK  124  A    between atoms: _308  and  _309
REMARK  125  A    between atoms: _308  and  _311
REMARK  126  A    between atoms: _311  and  _312
REMARK  127  A    between atoms: _315  and  _317
REMARK  128  A    between atoms: _317  and  _318
REMARK  129  A    between atoms: _317  and  _320
REMARK  130  A    between atoms: _323  and  _325
REMARK  131  A    between atoms: _325  and  _326
REMARK  132  A    between atoms: _325  and  _328
REMARK  133  A    between atoms: _328  and  _329
REMARK  134  A    between atoms: _334  and  _336
REMARK  135  A    between atoms: _347  and  _350
REMARK  136  A    between atoms: _350  and  _351
REMARK  137  A    between atoms: _351  and  _352
REMARK  138  A    between atoms: _357  and  _360
REMARK  139  A    between atoms: _360  and  _361
REMARK  140  A    between atoms: _371  and  _372
REMARK  141  A    between atoms: _380  and  _382
REMARK  142  A    between atoms: _382  and  _383
REMARK  143  A    between atoms: _382  and  _385
REMARK  144  A    between atoms: _385  and  _386
REMARK  145  A    between atoms: _389  and  _391
REMARK  146  A    between atoms: _391  and  _392
REMARK  147  A    between atoms: _391  and  _394
REMARK  148  A    between atoms: _394  and  _395
REMARK  149  A    between atoms: _400  and  _401
REMARK  150  A    between atoms: _403  and  _405
REMARK  151  A    between atoms: _405  and  _406
REMARK  152  A    between atoms: _405  and  _408
REMARK  153  A    between atoms: _408  and  _409
REMARK  154  A    between atoms: _415  and  _417
REMARK  155  A    between atoms: _417  and  _418
REMARK  156  A    between atoms: _417  and  _420
REMARK  157  A    between atoms: _420  and  _421
REMARK  158  A    between atoms: _426  and  _427
REMARK  159  A    between atoms: _429  and  _431
REMARK  160  A    between atoms: _431  and  _432
REMARK  161  A    between atoms: _431  and  _434
REMARK  162  A    between atoms: _434  and  _435
REMARK  163  A    between atoms: _435  and  _436
REMARK  164  A    between atoms: _436  and  _437
REMARK  165  A    between atoms: _446  and  _448
REMARK  166  A    between atoms: _448  and  _449
REMARK  167  A    between atoms: _448  and  _451
REMARK  168  A    between atoms: _451  and  _452
REMARK  169  A    between atoms: _455  and  _457
REMARK  170  A    between atoms: _457  and  _458
REMARK  171  A    between atoms: _460  and  _462
REMARK  172  A    between atoms: _462  and  _463
REMARK  173  A    between atoms: _462  and  _465
REMARK  174  A    between atoms: _465  and  _466
REMARK  175  A    between atoms: _472  and  _473
REMARK  176  A    between atoms: _478  and  _480
REMARK  177  A    between atoms: _480  and  _481
REMARK  178  A    between atoms: _483  and  _485
REMARK  179  A    between atoms: _485  and  _486
REMARK  180  A    between atoms: _485  and  _488
REMARK  181  A    between atoms: _488  and  _489
REMARK  182  A    between atoms: _495  and  _497
REMARK  183  A    between atoms: _497  and  _498
REMARK  184  A    between atoms: _497  and  _500
REMARK  185  A    between atoms: _500  and  _501
REMARK  186  A    between atoms: _506  and  _508
REMARK  187  A    between atoms: _508  and  _509
REMARK  188  A    between atoms: _508  and  _511
REMARK  189  A    between atoms: _511  and  _512
REMARK  190  A    between atoms: _512  and  _513
REMARK  191  A    between atoms: _513  and  _514
REMARK  192  A    between atoms: _514  and  ZN_788
REMARK  193  A    between atoms: _516  and  _518
REMARK  194  A    between atoms: _518  and  _519
REMARK  195  A    between atoms: _522  and  _524
REMARK  196  A    between atoms: _524  and  _525
REMARK  197  A    between atoms: _527  and  _529
REMARK  198  A    between atoms: _529  and  _530
REMARK  199  A    between atoms: _529  and  _532
REMARK  200  A    between atoms: _532  and  _533
REMARK  201  A    between atoms: _536  and  _538
REMARK  202  A    between atoms: _538  and  _539
REMARK  203  A    between atoms: _538  and  _541
REMARK  204  A    between atoms: _544  and  _546
REMARK  205  A    between atoms: _546  and  _547
REMARK  206  A    between atoms: _546  and  _549
REMARK  207  A    between atoms: _549  and  _550
REMARK  208  A    between atoms: _552  and  _554
REMARK  209  A    between atoms: _554  and  _555
REMARK  210  A    between atoms: _554  and  _557
REMARK  211  A    between atoms: _557  and  _558
REMARK  212  A    between atoms: _561  and  _563
REMARK  213  A    between atoms: _563  and  _564
REMARK  214  A    between atoms: _563  and  _566
REMARK  215  A    between atoms: _566  and  _567
REMARK  216  A    between atoms: _570  and  _572
REMARK  217  A    between atoms: _572  and  _573
REMARK  218  A    between atoms: _572  and  _575
REMARK  219  A    between atoms: _575  and  _576
REMARK  220  A    between atoms: _576  and  _577
REMARK  221  A    between atoms: _577  and  _578
REMARK  222  A    between atoms: _578  and  _579
REMARK  223  A    between atoms: _583  and  _585
REMARK  224  A    between atoms: _585  and  _586
REMARK  225  A    between atoms: _585  and  _588
REMARK  226  A    between atoms: _588  and  _589
REMARK  227  A    between atoms: _595  and  _597
REMARK  228  A    between atoms: _597  and  _598
REMARK  229  A    between atoms: _597  and  _600
REMARK  230  A    between atoms: _600  and  _601
REMARK  231  A    between atoms: _607  and  _609
REMARK  232  A    between atoms: _609  and  _610
REMARK  233  A    between atoms: _613  and  _615
REMARK  234  A    between atoms: _615  and  _616
REMARK  235  A    between atoms: _615  and  _618
REMARK  236  A    between atoms: _618  and  _619
REMARK  237  A    between atoms: _619  and  _620
REMARK  238  A    between atoms: _622  and  _624
REMARK  239  A    between atoms: _624  and  _625
REMARK  240  A    between atoms: _624  and  _627
REMARK  241  A    between atoms: _627  and  _628
REMARK  242  A    between atoms: _628  and  _629
REMARK  243  A    between atoms: _629  and  _630
REMARK  244  A    between atoms: _630  and  _631
REMARK  245  A    between atoms: _635  and  _637
REMARK  246  A    between atoms: _637  and  _638
REMARK  247  A    between atoms: _637  and  _640
REMARK  248  A    between atoms: _640  and  _641
REMARK  249  A    between atoms: _646  and  _647
REMARK  250  A    between atoms: _649  and  _651
REMARK  251  A    between atoms: _651  and  _652
REMARK  252  A    between atoms: _651  and  _654
REMARK  253  A    between atoms: _654  and  _655
REMARK  254  A    between atoms: _660  and  _662
REMARK  255  A    between atoms: _662  and  _663
REMARK  256  A    between atoms: _662  and  _665
REMARK  257  A    between atoms: _665  and  _666
REMARK  258  A    between atoms: _669  and  _671
REMARK  259  A    between atoms: _671  and  _672
REMARK  260  A    between atoms: _675  and  _677
REMARK  261  A    between atoms: _677  and  _678
REMARK  262  A    between atoms: _677  and  _680
REMARK  263  A    between atoms: _680  and  _681
REMARK  264  A    between atoms: _684  and  _686
REMARK  265  A    between atoms: _686  and  _687
REMARK  266  A    between atoms: _686  and  _689
REMARK  267  A    between atoms: _692  and  _694
REMARK  268  A    between atoms: _694  and  _695
REMARK  269  A    between atoms: _694  and  _697
REMARK  270  A    between atoms: _697  and  _698
REMARK  271  A    between atoms: _698  and  _699
REMARK  272  A    between atoms: _702  and  _704
REMARK  273  A    between atoms: _704  and  _705
REMARK  274  A    between atoms: _704  and  _707
REMARK  275  A    between atoms: _707  and  _708
REMARK  276  A    between atoms: _713  and  _714
REMARK  277  A    between atoms: _716  and  _718
REMARK  278  A    between atoms: _718  and  _719
REMARK  279  A    between atoms: _718  and  _721
REMARK  280  A    between atoms: _721  and  _722
REMARK  281  A    between atoms: _722  and  _723
REMARK  282  A    between atoms: _723  and  _724
REMARK  283  A    between atoms: _733  and  _735
REMARK  284  A    between atoms: _735  and  _736
REMARK  285  A    between atoms: _735  and  _738
REMARK  286  A    between atoms: _738  and  _739
REMARK  287  A    between atoms: _744  and  _745
REMARK  288  A    between atoms: _747  and  _749
REMARK  289  A    between atoms: _749  and  _750
REMARK  290  A    between atoms: _749  and  _752
REMARK  291  A    between atoms: _752  and  _753
REMARK  292  A    between atoms: _756  and  _758
REMARK  293  A    between atoms: _758  and  _759
REMARK  294  A    between atoms: _758  and  _761
REMARK  295  A    between atoms: _761  and  _762
REMARK  296  A    between atoms: _764  and  _766
REMARK  297  A    between atoms: _766  and  _767
REMARK  298  A    between atoms: _766  and  _769
REMARK  299  A    between atoms: _769  and  _770
REMARK  300  A    between atoms: _776  and  _778
REMARK  301  A    between atoms: _778  and  _779
REMARK  302  A    between atoms: _778  and  _781
REMARK  303  A    between atoms: _781  and  _782
REMARK  304  A    between atoms: _782  and  _783
REMARK                            x       y       z     vdW  Elec       q    Type
REMARK                         _______ _______ _______ _____ _____    ______ ____
ROOT
ATOM      1  O   HOH     1      30.847   2.992 -35.209  0.00  0.00    +0.000 OA
ENDROOT
TORSDOF 0
REMARK  Name = ../refined-set-2016/4ca8/4ca8_pocket.pdb
REMARK  304 active torsions:
REMARK  status: ('A' for Active; 'I' for Inactive)
REMARK    1  A    between atoms: _1  and  _3
REMARK    2  A    between atoms: _3  and  _4
REMARK    3  A    between atoms: _3  and  _6
REMARK    4  A    between atoms: _6  and  _7
REMARK    5  A    between atoms: _7  and  _8
REMARK    6  A    between atoms: _11  and  _13
REMARK    7  A    between atoms: _13  and  _14
REMARK    8  A    between atoms: _13  and  _16
REMARK    9  A    between atoms: _16  and  _17
REMARK   10  A    between atoms: _17  and  _18
REMARK   11  A    between atoms: _21  and  _23
REMARK   12  A    between atoms: _23  and  _24
REMARK   13  A    between atoms: _23  and  _26
REMARK   14  A    between atoms: _26  and  _27
REMARK   15  A    between atoms: _32  and  _34
REMARK   16  A    between atoms: _34  and  _35
REMARK   17  A    between atoms: _34  and  _37
REMARK   18  A    between atoms: _37  and  _38
REMARK   19  A    between atoms: _48  and  _50
REMARK   20  A    between atoms: _50  and  _51
REMARK   21  A    between atoms: _50  and  _53
REMARK   22  A    between atoms: _53  and  _54
REMARK   23  A    between atoms: _54  and  _55
REMARK   24  A    between atoms: _60  and  _62
REMARK   25  A    between atoms: _62  and  _63
REMARK   26  A    between atoms: _62  and  _65
REMARK   27  A    between atoms: _65  and  _66
REMARK   28  A    between atoms: _66  and  _67
REMARK   29  A    between atoms: _72  and  _74
REMARK   30  A    between atoms: _74  and  _75
REMARK   31  A    between atoms: _74  and  _77
REMARK   32  A    between atoms: _77  and  _78
REMARK   33  A    between atoms: _80  and  _82
REMARK   34  A    between atoms: _82  and  _83
REMARK   35  A    between atoms: _82  and  _85
REMARK   36  A    between atoms: _85  and  _86
REMARK   37  A    between atoms: _86  and  _87
REMARK   38  A    between atoms: _90  and  _92
REMARK   39  A    between atoms: _92  and  _93
REMARK   40  A    between atoms: _92  and  _95
REMARK   41  A    between atoms: _98  and  _100
REMARK   42  A    between atoms: _100  and  _101
REMARK   43  A    between atoms: _100  and  _103
REMARK   44  A    between atoms: _105  and  _107
REMARK   45  A    between atoms: _107  and  _108
REMARK   46  A    between atoms: _107  and  _110
REMARK   47  A    between atoms: _110  and  _111
REMARK   48  A    between atoms: _116  and  _118
REMARK   49  A    between atoms: _118  and  _119
REMARK   50  A    between atoms: _122  and  _124
REMARK   51  A    between atoms: _124  and  _125
REMARK   52  A    between atoms: _124  and  _127
REMARK   53  A    between atoms: _127  and  _128
REMARK   54  A    between atoms: _130  and  _132
REMARK   55  A    between atoms: _132  and  _133
REMARK   56  A    between atoms: _136  and  _138
REMARK   57  A    between atoms: _138  and  _139
REMARK   58  A    between atoms: _138  and  _141
REMARK   59  A    between atoms: _141  and  _142
REMARK   60  A    between atoms: _152  and  _154
REMARK   61  A    between atoms: _154  and  _155
REMARK   62  A    between atoms: _154  and  _157
REMARK   63  A    between atoms: _157  and  _158
REMARK   64  A    between atoms: _161  and  _163
REMARK   65  A    between atoms: _163  and  _164
REMARK   66  A    between atoms: _163  and  _166
REMARK   67  A    between atoms: _166  and  _167
REMARK   68  A    between atoms: _172  and  _173
REMARK   69  A    between atoms: _175  and  _177
REMARK   70  A    between atoms: _177  and  _178
REMARK   71  A    between atoms: _177  and  _180
REMARK   72  A    between atoms: _180  and  _181
REMARK   73  A    between atoms: _181  and  _182
REMARK   74  A    between atoms: _182  and  _183
REMARK   75  A    between atoms: _192  and  _194
REMARK   76  A    between atoms: _194  and  _195
REMARK   77  A    between atoms: _194  and  _197
REMARK   78  A    between atoms: _197  and  _198
REMARK   79  A    between atoms: _201  and  _203
REMARK   80  A    between atoms: _203  and  _204
REMARK   81  A    between atoms: _203  and  _206
REMARK   82  A    between atoms: _206  and  _207
REMARK   83  A    between atoms: _207  and  _208
REMARK   84  A    between atoms: _208  and  _209
REMARK   85  A    between atoms: _209  and  _210
REMARK   86  A    between atoms: _214  and  _216
REMARK   87  A    between atoms: _216  and  _217
REMARK   88  A    between atoms: _216  and  _219
REMARK   89  A    between atoms: _219  and  _220
REMARK   90  A    between atoms: _220  and  _221
REMARK   91  A    between atoms: _226  and  _228
REMARK   92  A    between atoms: _228  and  _229
REMARK   93  A    between atoms: _228  and  _231
REMARK   94  A    between atoms: _231  and  _232
REMARK   95  A    between atoms: _232  and  _233
REMARK   96  A    between atoms: _233  and  _234
REMARK   97  A    between atoms: _243  and  _245
REMARK   98  A    between atoms: _245  and  _246
REMARK   99  A    between atoms: _245  and  _248
REMARK  100  A    between atoms: _248  and  _249
REMARK  101  A    between atoms: _252  and  _254
REMARK  102  A    between atoms: _254  and  _255
REMARK  103  A    between atoms: _254  and  _257
REMARK  104  A    between atoms: _257  and  _258
REMARK  105  A    between atoms: _258  and  _259
REMARK  106  A    between atoms: _264  and  _266
REMARK  107  A    between atoms: _266  and  _267
REMARK  108  A    between atoms: _266  and  _269
REMARK  109  A    between atoms: _269  and  _270
REMARK  110  A    between atoms: _273  and  _275
REMARK  111  A    between atoms: _275  and  _276
REMARK  112  A    between atoms: _275  and  _278
REMARK  113  A    between atoms: _278  and  _279
REMARK  114  A    between atoms: _279  and  _280
REMARK  115  A    between atoms: _285  and  _287
REMARK  116  A    between atoms: _287  and  _288
REMARK  117  A    between atoms: _287  and  _290
REMARK  118  A    between atoms: _290  and  _291
REMARK  119  A    between atoms: _294  and  _296
REMARK  120  A    between atoms: _296  and  _297
REMARK  121  A    between atoms: _296  and  _299
REMARK  122  A    between atoms: _299  and  _300
REMARK  123  A    between atoms: _306  and  _308
REMARK  124  A    between atoms: _308  and  _309
REMARK  125  A    between atoms: _308  and  _311
REMARK  126  A    between atoms: _311  and  _312
REMARK  127  A    between atoms: _315  and  _317
REMARK  128  A    between atoms: _317  and  _318
REMARK  129  A    between atoms: _317  and  _320
REMARK  130  A    between atoms: _323  and  _325
REMARK  131  A    between atoms: _325  and  _326
REMARK  132  A    between atoms: _325  and  _328
REMARK  133  A    between atoms: _328  and  _329
REMARK  134  A    between atoms: _334  and  _336
REMARK  135  A    between atoms: _347  and  _350
REMARK  136  A    between atoms: _350  and  _351
REMARK  137  A    between atoms: _351  and  _352
REMARK  138  A    between atoms: _357  and  _360
REMARK  139  A    between atoms: _360  and  _361
REMARK  140  A    between atoms: _371  and  _372
REMARK  141  A    between atoms: _380  and  _382
REMARK  142  A    between atoms: _382  and  _383
REMARK  143  A    between atoms: _382  and  _385
REMARK  144  A    between atoms: _385  and  _386
REMARK  145  A    between atoms: _389  and  _391
REMARK  146  A    between atoms: _391  and  _392
REMARK  147  A    between atoms: _391  and  _394
REMARK  148  A    between atoms: _394  and  _395
REMARK  149  A    between atoms: _400  and  _401
REMARK  150  A    between atoms: _403  and  _405
REMARK  151  A    between atoms: _405  and  _406
REMARK  152  A    between atoms: _405  and  _408
REMARK  153  A    between atoms: _408  and  _409
REMARK  154  A    between atoms: _415  and  _417
REMARK  155  A    between atoms: _417  and  _418
REMARK  156  A    between atoms: _417  and  _420
REMARK  157  A    between atoms: _420  and  _421
REMARK  158  A    between atoms: _426  and  _427
REMARK  159  A    between atoms: _429  and  _431
REMARK  160  A    between atoms: _431  and  _432
REMARK  161  A    between atoms: _431  and  _434
REMARK  162  A    between atoms: _434  and  _435
REMARK  163  A    between atoms: _435  and  _436
REMARK  164  A    between atoms: _436  and  _437
REMARK  165  A    between atoms: _446  and  _448
REMARK  166  A    between atoms: _448  and  _449
REMARK  167  A    between atoms: _448  and  _451
REMARK  168  A    between atoms: _451  and  _452
REMARK  169  A    between atoms: _455  and  _457
REMARK  170  A    between atoms: _457  and  _458
REMARK  171  A    between atoms: _460  and  _462
REMARK  172  A    between atoms: _462  and  _463
REMARK  173  A    between atoms: _462  and  _465
REMARK  174  A    between atoms: _465  and  _466
REMARK  175  A    between atoms: _472  and  _473
REMARK  176  A    between atoms: _478  and  _480
REMARK  177  A    between atoms: _480  and  _481
REMARK  178  A    between atoms: _483  and  _485
REMARK  179  A    between atoms: _485  and  _486
REMARK  180  A    between atoms: _485  and  _488
REMARK  181  A    between atoms: _488  and  _489
REMARK  182  A    between atoms: _495  and  _497
REMARK  183  A    between atoms: _497  and  _498
REMARK  184  A    between atoms: _497  and  _500
REMARK  185  A    between atoms: _500  and  _501
REMARK  186  A    between atoms: _506  and  _508
REMARK  187  A    between atoms: _508  and  _509
REMARK  188  A    between atoms: _508  and  _511
REMARK  189  A    between atoms: _511  and  _512
REMARK  190  A    between atoms: _512  and  _513
REMARK  191  A    between atoms: _513  and  _514
REMARK  192  A    between atoms: _514  and  ZN_788
REMARK  193  A    between atoms: _516  and  _518
REMARK  194  A    between atoms: _518  and  _519
REMARK  195  A    between atoms: _522  and  _524
REMARK  196  A    between atoms: _524  and  _525
REMARK  197  A    between atoms: _527  and  _529
REMARK  198  A    between atoms: _529  and  _530
REMARK  199  A    between atoms: _529  and  _532
REMARK  200  A    between atoms: _532  and  _533
REMARK  201  A    between atoms: _536  and  _538
REMARK  202  A    between atoms: _538  and  _539
REMARK  203  A    between atoms: _538  and  _541
REMARK  204  A    between atoms: _544  and  _546
REMARK  205  A    between atoms: _546  and  _547
REMARK  206  A    between atoms: _546  and  _549
REMARK  207  A    between atoms: _549  and  _550
REMARK  208  A    between atoms: _552  and  _554
REMARK  209  A    between atoms: _554  and  _555
REMARK  210  A    between atoms: _554  and  _557
REMARK  211  A    between atoms: _557  and  _558
REMARK  212  A    between atoms: _561  and  _563
REMARK  213  A    between atoms: _563  and  _564
REMARK  214  A    between atoms: _563  and  _566
REMARK  215  A    between atoms: _566  and  _567
REMARK  216  A    between atoms: _570  and  _572
REMARK  217  A    between atoms: _572  and  _573
REMARK  218  A    between atoms: _572  and  _575
REMARK  219  A    between atoms: _575  and  _576
REMARK  220  A    between atoms: _576  and  _577
REMARK  221  A    between atoms: _577  and  _578
REMARK  222  A    between atoms: _578  and  _579
REMARK  223  A    between atoms: _583  and  _585
REMARK  224  A    between atoms: _585  and  _586
REMARK  225  A    between atoms: _585  and  _588
REMARK  226  A    between atoms: _588  and  _589
REMARK  227  A    between atoms: _595  and  _597
REMARK  228  A    between atoms: _597  and  _598
REMARK  229  A    between atoms: _597  and  _600
REMARK  230  A    between atoms: _600  and  _601
REMARK  231  A    between atoms: _607  and  _609
REMARK  232  A    between atoms: _609  and  _610
REMARK  233  A    between atoms: _613  and  _615
REMARK  234  A    between atoms: _615  and  _616
REMARK  235  A    between atoms: _615  and  _618
REMARK  236  A    between atoms: _618  and  _619
REMARK  237  A    between atoms: _619  and  _620
REMARK  238  A    between atoms: _622  and  _624
REMARK  239  A    between atoms: _624  and  _625
REMARK  240  A    between atoms: _624  and  _627
REMARK  241  A    between atoms: _627  and  _628
REMARK  242  A    between atoms: _628  and  _629
REMARK  243  A    between atoms: _629  and  _630
REMARK  244  A    between atoms: _630  and  _631
REMARK  245  A    between atoms: _635  and  _637
REMARK  246  A    between atoms: _637  and  _638
REMARK  247  A    between atoms: _637  and  _640
REMARK  248  A    between atoms: _640  and  _641
REMARK  249  A    between atoms: _646  and  _647
REMARK  250  A    between atoms: _649  and  _651
REMARK  251  A    between atoms: _651  and  _652
REMARK  252  A    between atoms: _651  and  _654
REMARK  253  A    between atoms: _654  and  _655
REMARK  254  A    between atoms: _660  and  _662
REMARK  255  A    between atoms: _662  and  _663
REMARK  256  A    between atoms: _662  and  _665
REMARK  257  A    between atoms: _665  and  _666
REMARK  258  A    between atoms: _669  and  _671
REMARK  259  A    between atoms: _671  and  _672
REMARK  260  A    between atoms: _675  and  _677
REMARK  261  A    between atoms: _677  and  _678
REMARK  262  A    between atoms: _677  and  _680
REMARK  263  A    between atoms: _680  and  _681
REMARK  264  A    between atoms: _684  and  _686
REMARK  265  A    between atoms: _686  and  _687
REMARK  266  A    between atoms: _686  and  _689
REMARK  267  A    between atoms: _692  and  _694
REMARK  268  A    between atoms: _694  and  _695
REMARK  269  A    between atoms: _694  and  _697
REMARK  270  A    between atoms: _697  and  _698
REMARK  271  A    between atoms: _698  and  _699
REMARK  272  A    between atoms: _702  and  _704
REMARK  273  A    between atoms: _704  and  _705
REMARK  274  A    between atoms: _704  and  _707
REMARK  275  A    between atoms: _707  and  _708
REMARK  276  A    between atoms: _713  and  _714
REMARK  277  A    between atoms: _716  and  _718
REMARK  278  A    between atoms: _718  and  _719
REMARK  279  A    between atoms: _718  and  _721
REMARK  280  A    between atoms: _721  and  _722
REMARK  281  A    between atoms: _722  and  _723
REMARK  282  A    between atoms: _723  and  _724
REMARK  283  A    between atoms: _733  and  _735
REMARK  284  A    between atoms: _735  and  _736
REMARK  285  A    between atoms: _735  and  _738
REMARK  286  A    between atoms: _738  and  _739
REMARK  287  A    between atoms: _744  and  _745
REMARK  288  A    between atoms: _747  and  _749
REMARK  289  A    between atoms: _749  and  _750
REMARK  290  A    between atoms: _749  and  _752
REMARK  291  A    between atoms: _752  and  _753
REMARK  292  A    between atoms: _756  and  _758
REMARK  293  A    between atoms: _758  and  _759
REMARK  294  A    between atoms: _758  and  _761
REMARK  295  A    between atoms: _761  and  _762
REMARK  296  A    between atoms: _764  and  _766
REMARK  297  A    between atoms: _766  and  _767
REMARK  298  A    between atoms: _766  and  _769
REMARK  299  A    between atoms: _769  and  _770
REMARK  300  A    between atoms: _776  and  _778
REMARK  301  A    between atoms: _778  and  _779
REMARK  302  A    between atoms: _778  and  _781
REMARK  303  A    between atoms: _781  and  _782
REMARK  304  A    between atoms: _782  and  _783
REMARK                            x       y       z     vdW  Elec       q    Type
REMARK                         _______ _______ _______ _____ _____    ______ ____
ROOT
ATOM      1  O   HOH     1      26.217   4.380 -37.231  0.00  0.00    +0.000 OA
ENDROOT
TORSDOF 0
REMARK  Name = ../refined-set-2016/4ca8/4ca8_pocket.pdb
REMARK  304 active torsions:
REMARK  status: ('A' for Active; 'I' for Inactive)
REMARK    1  A    between atoms: _1  and  _3
REMARK    2  A    between atoms: _3  and  _4
REMARK    3  A    between atoms: _3  and  _6
REMARK    4  A    between atoms: _6  and  _7
REMARK    5  A    between atoms: _7  and  _8
REMARK    6  A    between atoms: _11  and  _13
REMARK    7  A    between atoms: _13  and  _14
REMARK    8  A    between atoms: _13  and  _16
REMARK    9  A    between atoms: _16  and  _17
REMARK   10  A    between atoms: _17  and  _18
REMARK   11  A    between atoms: _21  and  _23
REMARK   12  A    between atoms: _23  and  _24
REMARK   13  A    between atoms: _23  and  _26
REMARK   14  A    between atoms: _26  and  _27
REMARK   15  A    between atoms: _32  and  _34
REMARK   16  A    between atoms: _34  and  _35
REMARK   17  A    between atoms: _34  and  _37
REMARK   18  A    between atoms: _37  and  _38
REMARK   19  A    between atoms: _48  and  _50
REMARK   20  A    between atoms: _50  and  _51
REMARK   21  A    between atoms: _50  and  _53
REMARK   22  A    between atoms: _53  and  _54
REMARK   23  A    between atoms: _54  and  _55
REMARK   24  A    between atoms: _60  and  _62
REMARK   25  A    between atoms: _62  and  _63
REMARK   26  A    between atoms: _62  and  _65
REMARK   27  A    between atoms: _65  and  _66
REMARK   28  A    between atoms: _66  and  _67
REMARK   29  A    between atoms: _72  and  _74
REMARK   30  A    between atoms: _74  and  _75
REMARK   31  A    between atoms: _74  and  _77
REMARK   32  A    between atoms: _77  and  _78
REMARK   33  A    between atoms: _80  and  _82
REMARK   34  A    between atoms: _82  and  _83
REMARK   35  A    between atoms: _82  and  _85
REMARK   36  A    between atoms: _85  and  _86
REMARK   37  A    between atoms: _86  and  _87
REMARK   38  A    between atoms: _90  and  _92
REMARK   39  A    between atoms: _92  and  _93
REMARK   40  A    between atoms: _92  and  _95
REMARK   41  A    between atoms: _98  and  _100
REMARK   42  A    between atoms: _100  and  _101
REMARK   43  A    between atoms: _100  and  _103
REMARK   44  A    between atoms: _105  and  _107
REMARK   45  A    between atoms: _107  and  _108
REMARK   46  A    between atoms: _107  and  _110
REMARK   47  A    between atoms: _110  and  _111
REMARK   48  A    between atoms: _116  and  _118
REMARK   49  A    between atoms: _118  and  _119
REMARK   50  A    between atoms: _122  and  _124
REMARK   51  A    between atoms: _124  and  _125
REMARK   52  A    between atoms: _124  and  _127
REMARK   53  A    between atoms: _127  and  _128
REMARK   54  A    between atoms: _130  and  _132
REMARK   55  A    between atoms: _132  and  _133
REMARK   56  A    between atoms: _136  and  _138
REMARK   57  A    between atoms: _138  and  _139
REMARK   58  A    between atoms: _138  and  _141
REMARK   59  A    between atoms: _141  and  _142
REMARK   60  A    between atoms: _152  and  _154
REMARK   61  A    between atoms: _154  and  _155
REMARK   62  A    between atoms: _154  and  _157
REMARK   63  A    between atoms: _157  and  _158
REMARK   64  A    between atoms: _161  and  _163
REMARK   65  A    between atoms: _163  and  _164
REMARK   66  A    between atoms: _163  and  _166
REMARK   67  A    between atoms: _166  and  _167
REMARK   68  A    between atoms: _172  and  _173
REMARK   69  A    between atoms: _175  and  _177
REMARK   70  A    between atoms: _177  and  _178
REMARK   71  A    between atoms: _177  and  _180
REMARK   72  A    between atoms: _180  and  _181
REMARK   73  A    between atoms: _181  and  _182
REMARK   74  A    between atoms: _182  and  _183
REMARK   75  A    between atoms: _192  and  _194
REMARK   76  A    between atoms: _194  and  _195
REMARK   77  A    between atoms: _194  and  _197
REMARK   78  A    between atoms: _197  and  _198
REMARK   79  A    between atoms: _201  and  _203
REMARK   80  A    between atoms: _203  and  _204
REMARK   81  A    between atoms: _203  and  _206
REMARK   82  A    between atoms: _206  and  _207
REMARK   83  A    between atoms: _207  and  _208
REMARK   84  A    between atoms: _208  and  _209
REMARK   85  A    between atoms: _209  and  _210
REMARK   86  A    between atoms: _214  and  _216
REMARK   87  A    between atoms: _216  and  _217
REMARK   88  A    between atoms: _216  and  _219
REMARK   89  A    between atoms: _219  and  _220
REMARK   90  A    between atoms: _220  and  _221
REMARK   91  A    between atoms: _226  and  _228
REMARK   92  A    between atoms: _228  and  _229
REMARK   93  A    between atoms: _228  and  _231
REMARK   94  A    between atoms: _231  and  _232
REMARK   95  A    between atoms: _232  and  _233
REMARK   96  A    between atoms: _233  and  _234
REMARK   97  A    between atoms: _243  and  _245
REMARK   98  A    between atoms: _245  and  _246
REMARK   99  A    between atoms: _245  and  _248
REMARK  100  A    between atoms: _248  and  _249
REMARK  101  A    between atoms: _252  and  _254
REMARK  102  A    between atoms: _254  and  _255
REMARK  103  A    between atoms: _254  and  _257
REMARK  104  A    between atoms: _257  and  _258
REMARK  105  A    between atoms: _258  and  _259
REMARK  106  A    between atoms: _264  and  _266
REMARK  107  A    between atoms: _266  and  _267
REMARK  108  A    between atoms: _266  and  _269
REMARK  109  A    between atoms: _269  and  _270
REMARK  110  A    between atoms: _273  and  _275
REMARK  111  A    between atoms: _275  and  _276
REMARK  112  A    between atoms: _275  and  _278
REMARK  113  A    between atoms: _278  and  _279
REMARK  114  A    between atoms: _279  and  _280
REMARK  115  A    between atoms: _285  and  _287
REMARK  116  A    between atoms: _287  and  _288
REMARK  117  A    between atoms: _287  and  _290
REMARK  118  A    between atoms: _290  and  _291
REMARK  119  A    between atoms: _294  and  _296
REMARK  120  A    between atoms: _296  and  _297
REMARK  121  A    between atoms: _296  and  _299
REMARK  122  A    between atoms: _299  and  _300
REMARK  123  A    between atoms: _306  and  _308
REMARK  124  A    between atoms: _308  and  _309
REMARK  125  A    between atoms: _308  and  _311
REMARK  126  A    between atoms: _311  and  _312
REMARK  127  A    between atoms: _315  and  _317
REMARK  128  A    between atoms: _317  and  _318
REMARK  129  A    between atoms: _317  and  _320
REMARK  130  A    between atoms: _323  and  _325
REMARK  131  A    between atoms: _325  and  _326
REMARK  132  A    between atoms: _325  and  _328
REMARK  133  A    between atoms: _328  and  _329
REMARK  134  A    between atoms: _334  and  _336
REMARK  135  A    between atoms: _347  and  _350
REMARK  136  A    between atoms: _350  and  _351
REMARK  137  A    between atoms: _351  and  _352
REMARK  138  A    between atoms: _357  and  _360
REMARK  139  A    between atoms: _360  and  _361
REMARK  140  A    between atoms: _371  and  _372
REMARK  141  A    between atoms: _380  and  _382
REMARK  142  A    between atoms: _382  and  _383
REMARK  143  A    between atoms: _382  and  _385
REMARK  144  A    between atoms: _385  and  _386
REMARK  145  A    between atoms: _389  and  _391
REMARK  146  A    between atoms: _391  and  _392
REMARK  147  A    between atoms: _391  and  _394
REMARK  148  A    between atoms: _394  and  _395
REMARK  149  A    between atoms: _400  and  _401
REMARK  150  A    between atoms: _403  and  _405
REMARK  151  A    between atoms: _405  and  _406
REMARK  152  A    between atoms: _405  and  _408
REMARK  153  A    between atoms: _408  and  _409
REMARK  154  A    between atoms: _415  and  _417
REMARK  155  A    between atoms: _417  and  _418
REMARK  156  A    between atoms: _417  and  _420
REMARK  157  A    between atoms: _420  and  _421
REMARK  158  A    between atoms: _426  and  _427
REMARK  159  A    between atoms: _429  and  _431
REMARK  160  A    between atoms: _431  and  _432
REMARK  161  A    between atoms: _431  and  _434
REMARK  162  A    between atoms: _434  and  _435
REMARK  163  A    between atoms: _435  and  _436
REMARK  164  A    between atoms: _436  and  _437
REMARK  165  A    between atoms: _446  and  _448
REMARK  166  A    between atoms: _448  and  _449
REMARK  167  A    between atoms: _448  and  _451
REMARK  168  A    between atoms: _451  and  _452
REMARK  169  A    between atoms: _455  and  _457
REMARK  170  A    between atoms: _457  and  _458
REMARK  171  A    between atoms: _460  and  _462
REMARK  172  A    between atoms: _462  and  _463
REMARK  173  A    between atoms: _462  and  _465
REMARK  174  A    between atoms: _465  and  _466
REMARK  175  A    between atoms: _472  and  _473
REMARK  176  A    between atoms: _478  and  _480
REMARK  177  A    between atoms: _480  and  _481
REMARK  178  A    between atoms: _483  and  _485
REMARK  179  A    between atoms: _485  and  _486
REMARK  180  A    between atoms: _485  and  _488
REMARK  181  A    between atoms: _488  and  _489
REMARK  182  A    between atoms: _495  and  _497
REMARK  183  A    between atoms: _497  and  _498
REMARK  184  A    between atoms: _497  and  _500
REMARK  185  A    between atoms: _500  and  _501
REMARK  186  A    between atoms: _506  and  _508
REMARK  187  A    between atoms: _508  and  _509
REMARK  188  A    between atoms: _508  and  _511
REMARK  189  A    between atoms: _511  and  _512
REMARK  190  A    between atoms: _512  and  _513
REMARK  191  A    between atoms: _513  and  _514
REMARK  192  A    between atoms: _514  and  ZN_788
REMARK  193  A    between atoms: _516  and  _518
REMARK  194  A    between atoms: _518  and  _519
REMARK  195  A    between atoms: _522  and  _524
REMARK  196  A    between atoms: _524  and  _525
REMARK  197  A    between atoms: _527  and  _529
REMARK  198  A    between atoms: _529  and  _530
REMARK  199  A    between atoms: _529  and  _532
REMARK  200  A    between atoms: _532  and  _533
REMARK  201  A    between atoms: _536  and  _538
REMARK  202  A    between atoms: _538  and  _539
REMARK  203  A    between atoms: _538  and  _541
REMARK  204  A    between atoms: _544  and  _546
REMARK  205  A    between atoms: _546  and  _547
REMARK  206  A    between atoms: _546  and  _549
REMARK  207  A    between atoms: _549  and  _550
REMARK  208  A    between atoms: _552  and  _554
REMARK  209  A    between atoms: _554  and  _555
REMARK  210  A    between atoms: _554  and  _557
REMARK  211  A    between atoms: _557  and  _558
REMARK  212  A    between atoms: _561  and  _563
REMARK  213  A    between atoms: _563  and  _564
REMARK  214  A    between atoms: _563  and  _566
REMARK  215  A    between atoms: _566  and  _567
REMARK  216  A    between atoms: _570  and  _572
REMARK  217  A    between atoms: _572  and  _573
REMARK  218  A    between atoms: _572  and  _575
REMARK  219  A    between atoms: _575  and  _576
REMARK  220  A    between atoms: _576  and  _577
REMARK  221  A    between atoms: _577  and  _578
REMARK  222  A    between atoms: _578  and  _579
REMARK  223  A    between atoms: _583  and  _585
REMARK  224  A    between atoms: _585  and  _586
REMARK  225  A    between atoms: _585  and  _588
REMARK  226  A    between atoms: _588  and  _589
REMARK  227  A    between atoms: _595  and  _597
REMARK  228  A    between atoms: _597  and  _598
REMARK  229  A    between atoms: _597  and  _600
REMARK  230  A    between atoms: _600  and  _601
REMARK  231  A    between atoms: _607  and  _609
REMARK  232  A    between atoms: _609  and  _610
REMARK  233  A    between atoms: _613  and  _615
REMARK  234  A    between atoms: _615  and  _616
REMARK  235  A    between atoms: _615  and  _618
REMARK  236  A    between atoms: _618  and  _619
REMARK  237  A    between atoms: _619  and  _620
REMARK  238  A    between atoms: _622  and  _624
REMARK  239  A    between atoms: _624  and  _625
REMARK  240  A    between atoms: _624  and  _627
REMARK  241  A    between atoms: _627  and  _628
REMARK  242  A    between atoms: _628  and  _629
REMARK  243  A    between atoms: _629  and  _630
REMARK  244  A    between atoms: _630  and  _631
REMARK  245  A    between atoms: _635  and  _637
REMARK  246  A    between atoms: _637  and  _638
REMARK  247  A    between atoms: _637  and  _640
REMARK  248  A    between atoms: _640  and  _641
REMARK  249  A    between atoms: _646  and  _647
REMARK  250  A    between atoms: _649  and  _651
REMARK  251  A    between atoms: _651  and  _652
REMARK  252  A    between atoms: _651  and  _654
REMARK  253  A    between atoms: _654  and  _655
REMARK  254  A    between atoms: _660  and  _662
REMARK  255  A    between atoms: _662  and  _663
REMARK  256  A    between atoms: _662  and  _665
REMARK  257  A    between atoms: _665  and  _666
REMARK  258  A    between atoms: _669  and  _671
REMARK  259  A    between atoms: _671  and  _672
REMARK  260  A    between atoms: _675  and  _677
REMARK  261  A    between atoms: _677  and  _678
REMARK  262  A    between atoms: _677  and  _680
REMARK  263  A    between atoms: _680  and  _681
REMARK  264  A    between atoms: _684  and  _686
REMARK  265  A    between atoms: _686  and  _687
REMARK  266  A    between atoms: _686  and  _689
REMARK  267  A    between atoms: _692  and  _694
REMARK  268  A    between atoms: _694  and  _695
REMARK  269  A    between atoms: _694  and  _697
REMARK  270  A    between atoms: _697  and  _698
REMARK  271  A    between atoms: _698  and  _699
REMARK  272  A    between atoms: _702  and  _704
REMARK  273  A    between atoms: _704  and  _705
REMARK  274  A    between atoms: _704  and  _707
REMARK  275  A    between atoms: _707  and  _708
REMARK  276  A    between atoms: _713  and  _714
REMARK  277  A    between atoms: _716  and  _718
REMARK  278  A    between atoms: _718  and  _719
REMARK  279  A    between atoms: _718  and  _721
REMARK  280  A    between atoms: _721  and  _722
REMARK  281  A    between atoms: _722  and  _723
REMARK  282  A    between atoms: _723  and  _724
REMARK  283  A    between atoms: _733  and  _735
REMARK  284  A    between atoms: _735  and  _736
REMARK  285  A    between atoms: _735  and  _738
REMARK  286  A    between atoms: _738  and  _739
REMARK  287  A    between atoms: _744  and  _745
REMARK  288  A    between atoms: _747  and  _749
REMARK  289  A    between atoms: _749  and  _750
REMARK  290  A    between atoms: _749  and  _752
REMARK  291  A    between atoms: _752  and  _753
REMARK  292  A    between atoms: _756  and  _758
REMARK  293  A    between atoms: _758  and  _759
REMARK  294  A    between atoms: _758  and  _761
REMARK  295  A    between atoms: _761  and  _762
REMARK  296  A    between atoms: _764  and  _766
REMARK  297  A    between atoms: _766  and  _767
REMARK  298  A    between atoms: _766  and  _769
REMARK  299  A    between atoms: _769  and  _770
REMARK  300  A    between atoms: _776  and  _778
REMARK  301  A    between atoms: _778  and  _779
REMARK  302  A    between atoms: _778  and  _781
REMARK  303  A    between atoms: _781  and  _782
REMARK  304  A    between atoms: _782  and  _783
REMARK                            x       y       z     vdW  Elec       q    Type
REMARK                         _______ _______ _______ _____ _____    ______ ____
ROOT
ATOM      1  O   HOH     1      20.793  -8.035 -46.197  0.00  0.00    +0.000 OA
ENDROOT
TORSDOF 0
REMARK  Name = ../refined-set-2016/4ca8/4ca8_pocket.pdb
REMARK  304 active torsions:
REMARK  status: ('A' for Active; 'I' for Inactive)
REMARK    1  A    between atoms: _1  and  _3
REMARK    2  A    between atoms: _3  and  _4
REMARK    3  A    between atoms: _3  and  _6
REMARK    4  A    between atoms: _6  and  _7
REMARK    5  A    between atoms: _7  and  _8
REMARK    6  A    between atoms: _11  and  _13
REMARK    7  A    between atoms: _13  and  _14
REMARK    8  A    between atoms: _13  and  _16
REMARK    9  A    between atoms: _16  and  _17
REMARK   10  A    between atoms: _17  and  _18
REMARK   11  A    between atoms: _21  and  _23
REMARK   12  A    between atoms: _23  and  _24
REMARK   13  A    between atoms: _23  and  _26
REMARK   14  A    between atoms: _26  and  _27
REMARK   15  A    between atoms: _32  and  _34
REMARK   16  A    between atoms: _34  and  _35
REMARK   17  A    between atoms: _34  and  _37
REMARK   18  A    between atoms: _37  and  _38
REMARK   19  A    between atoms: _48  and  _50
REMARK   20  A    between atoms: _50  and  _51
REMARK   21  A    between atoms: _50  and  _53
REMARK   22  A    between atoms: _53  and  _54
REMARK   23  A    between atoms: _54  and  _55
REMARK   24  A    between atoms: _60  and  _62
REMARK   25  A    between atoms: _62  and  _63
REMARK   26  A    between atoms: _62  and  _65
REMARK   27  A    between atoms: _65  and  _66
REMARK   28  A    between atoms: _66  and  _67
REMARK   29  A    between atoms: _72  and  _74
REMARK   30  A    between atoms: _74  and  _75
REMARK   31  A    between atoms: _74  and  _77
REMARK   32  A    between atoms: _77  and  _78
REMARK   33  A    between atoms: _80  and  _82
REMARK   34  A    between atoms: _82  and  _83
REMARK   35  A    between atoms: _82  and  _85
REMARK   36  A    between atoms: _85  and  _86
REMARK   37  A    between atoms: _86  and  _87
REMARK   38  A    between atoms: _90  and  _92
REMARK   39  A    between atoms: _92  and  _93
REMARK   40  A    between atoms: _92  and  _95
REMARK   41  A    between atoms: _98  and  _100
REMARK   42  A    between atoms: _100  and  _101
REMARK   43  A    between atoms: _100  and  _103
REMARK   44  A    between atoms: _105  and  _107
REMARK   45  A    between atoms: _107  and  _108
REMARK   46  A    between atoms: _107  and  _110
REMARK   47  A    between atoms: _110  and  _111
REMARK   48  A    between atoms: _116  and  _118
REMARK   49  A    between atoms: _118  and  _119
REMARK   50  A    between atoms: _122  and  _124
REMARK   51  A    between atoms: _124  and  _125
REMARK   52  A    between atoms: _124  and  _127
REMARK   53  A    between atoms: _127  and  _128
REMARK   54  A    between atoms: _130  and  _132
REMARK   55  A    between atoms: _132  and  _133
REMARK   56  A    between atoms: _136  and  _138
REMARK   57  A    between atoms: _138  and  _139
REMARK   58  A    between atoms: _138  and  _141
REMARK   59  A    between atoms: _141  and  _142
REMARK   60  A    between atoms: _152  and  _154
REMARK   61  A    between atoms: _154  and  _155
REMARK   62  A    between atoms: _154  and  _157
REMARK   63  A    between atoms: _157  and  _158
REMARK   64  A    between atoms: _161  and  _163
REMARK   65  A    between atoms: _163  and  _164
REMARK   66  A    between atoms: _163  and  _166
REMARK   67  A    between atoms: _166  and  _167
REMARK   68  A    between atoms: _172  and  _173
REMARK   69  A    between atoms: _175  and  _177
REMARK   70  A    between atoms: _177  and  _178
REMARK   71  A    between atoms: _177  and  _180
REMARK   72  A    between atoms: _180  and  _181
REMARK   73  A    between atoms: _181  and  _182
REMARK   74  A    between atoms: _182  and  _183
REMARK   75  A    between atoms: _192  and  _194
REMARK   76  A    between atoms: _194  and  _195
REMARK   77  A    between atoms: _194  and  _197
REMARK   78  A    between atoms: _197  and  _198
REMARK   79  A    between atoms: _201  and  _203
REMARK   80  A    between atoms: _203  and  _204
REMARK   81  A    between atoms: _203  and  _206
REMARK   82  A    between atoms: _206  and  _207
REMARK   83  A    between atoms: _207  and  _208
REMARK   84  A    between atoms: _208  and  _209
REMARK   85  A    between atoms: _209  and  _210
REMARK   86  A    between atoms: _214  and  _216
REMARK   87  A    between atoms: _216  and  _217
REMARK   88  A    between atoms: _216  and  _219
REMARK   89  A    between atoms: _219  and  _220
REMARK   90  A    between atoms: _220  and  _221
REMARK   91  A    between atoms: _226  and  _228
REMARK   92  A    between atoms: _228  and  _229
REMARK   93  A    between atoms: _228  and  _231
REMARK   94  A    between atoms: _231  and  _232
REMARK   95  A    between atoms: _232  and  _233
REMARK   96  A    between atoms: _233  and  _234
REMARK   97  A    between atoms: _243  and  _245
REMARK   98  A    between atoms: _245  and  _246
REMARK   99  A    between atoms: _245  and  _248
REMARK  100  A    between atoms: _248  and  _249
REMARK  101  A    between atoms: _252  and  _254
REMARK  102  A    between atoms: _254  and  _255
REMARK  103  A    between atoms: _254  and  _257
REMARK  104  A    between atoms: _257  and  _258
REMARK  105  A    between atoms: _258  and  _259
REMARK  106  A    between atoms: _264  and  _266
REMARK  107  A    between atoms: _266  and  _267
REMARK  108  A    between atoms: _266  and  _269
REMARK  109  A    between atoms: _269  and  _270
REMARK  110  A    between atoms: _273  and  _275
REMARK  111  A    between atoms: _275  and  _276
REMARK  112  A    between atoms: _275  and  _278
REMARK  113  A    between atoms: _278  and  _279
REMARK  114  A    between atoms: _279  and  _280
REMARK  115  A    between atoms: _285  and  _287
REMARK  116  A    between atoms: _287  and  _288
REMARK  117  A    between atoms: _287  and  _290
REMARK  118  A    between atoms: _290  and  _291
REMARK  119  A    between atoms: _294  and  _296
REMARK  120  A    between atoms: _296  and  _297
REMARK  121  A    between atoms: _296  and  _299
REMARK  122  A    between atoms: _299  and  _300
REMARK  123  A    between atoms: _306  and  _308
REMARK  124  A    between atoms: _308  and  _309
REMARK  125  A    between atoms: _308  and  _311
REMARK  126  A    between atoms: _311  and  _312
REMARK  127  A    between atoms: _315  and  _317
REMARK  128  A    between atoms: _317  and  _318
REMARK  129  A    between atoms: _317  and  _320
REMARK  130  A    between atoms: _323  and  _325
REMARK  131  A    between atoms: _325  and  _326
REMARK  132  A    between atoms: _325  and  _328
REMARK  133  A    between atoms: _328  and  _329
REMARK  134  A    between atoms: _334  and  _336
REMARK  135  A    between atoms: _347  and  _350
REMARK  136  A    between atoms: _350  and  _351
REMARK  137  A    between atoms: _351  and  _352
REMARK  138  A    between atoms: _357  and  _360
REMARK  139  A    between atoms: _360  and  _361
REMARK  140  A    between atoms: _371  and  _372
REMARK  141  A    between atoms: _380  and  _382
REMARK  142  A    between atoms: _382  and  _383
REMARK  143  A    between atoms: _382  and  _385
REMARK  144  A    between atoms: _385  and  _386
REMARK  145  A    between atoms: _389  and  _391
REMARK  146  A    between atoms: _391  and  _392
REMARK  147  A    between atoms: _391  and  _394
REMARK  148  A    between atoms: _394  and  _395
REMARK  149  A    between atoms: _400  and  _401
REMARK  150  A    between atoms: _403  and  _405
REMARK  151  A    between atoms: _405  and  _406
REMARK  152  A    between atoms: _405  and  _408
REMARK  153  A    between atoms: _408  and  _409
REMARK  154  A    between atoms: _415  and  _417
REMARK  155  A    between atoms: _417  and  _418
REMARK  156  A    between atoms: _417  and  _420
REMARK  157  A    between atoms: _420  and  _421
REMARK  158  A    between atoms: _426  and  _427
REMARK  159  A    between atoms: _429  and  _431
REMARK  160  A    between atoms: _431  and  _432
REMARK  161  A    between atoms: _431  and  _434
REMARK  162  A    between atoms: _434  and  _435
REMARK  163  A    between atoms: _435  and  _436
REMARK  164  A    between atoms: _436  and  _437
REMARK  165  A    between atoms: _446  and  _448
REMARK  166  A    between atoms: _448  and  _449
REMARK  167  A    between atoms: _448  and  _451
REMARK  168  A    between atoms: _451  and  _452
REMARK  169  A    between atoms: _455  and  _457
REMARK  170  A    between atoms: _457  and  _458
REMARK  171  A    between atoms: _460  and  _462
REMARK  172  A    between atoms: _462  and  _463
REMARK  173  A    between atoms: _462  and  _465
REMARK  174  A    between atoms: _465  and  _466
REMARK  175  A    between atoms: _472  and  _473
REMARK  176  A    between atoms: _478  and  _480
REMARK  177  A    between atoms: _480  and  _481
REMARK  178  A    between atoms: _483  and  _485
REMARK  179  A    between atoms: _485  and  _486
REMARK  180  A    between atoms: _485  and  _488
REMARK  181  A    between atoms: _488  and  _489
REMARK  182  A    between atoms: _495  and  _497
REMARK  183  A    between atoms: _497  and  _498
REMARK  184  A    between atoms: _497  and  _500
REMARK  185  A    between atoms: _500  and  _501
REMARK  186  A    between atoms: _506  and  _508
REMARK  187  A    between atoms: _508  and  _509
REMARK  188  A    between atoms: _508  and  _511
REMARK  189  A    between atoms: _511  and  _512
REMARK  190  A    between atoms: _512  and  _513
REMARK  191  A    between atoms: _513  and  _514
REMARK  192  A    between atoms: _514  and  ZN_788
REMARK  193  A    between atoms: _516  and  _518
REMARK  194  A    between atoms: _518  and  _519
REMARK  195  A    between atoms: _522  and  _524
REMARK  196  A    between atoms: _524  and  _525
REMARK  197  A    between atoms: _527  and  _529
REMARK  198  A    between atoms: _529  and  _530
REMARK  199  A    between atoms: _529  and  _532
REMARK  200  A    between atoms: _532  and  _533
REMARK  201  A    between atoms: _536  and  _538
REMARK  202  A    between atoms: _538  and  _539
REMARK  203  A    between atoms: _538  and  _541
REMARK  204  A    between atoms: _544  and  _546
REMARK  205  A    between atoms: _546  and  _547
REMARK  206  A    between atoms: _546  and  _549
REMARK  207  A    between atoms: _549  and  _550
REMARK  208  A    between atoms: _552  and  _554
REMARK  209  A    between atoms: _554  and  _555
REMARK  210  A    between atoms: _554  and  _557
REMARK  211  A    between atoms: _557  and  _558
REMARK  212  A    between atoms: _561  and  _563
REMARK  213  A    between atoms: _563  and  _564
REMARK  214  A    between atoms: _563  and  _566
REMARK  215  A    between atoms: _566  and  _567
REMARK  216  A    between atoms: _570  and  _572
REMARK  217  A    between atoms: _572  and  _573
REMARK  218  A    between atoms: _572  and  _575
REMARK  219  A    between atoms: _575  and  _576
REMARK  220  A    between atoms: _576  and  _577
REMARK  221  A    between atoms: _577  and  _578
REMARK  222  A    between atoms: _578  and  _579
REMARK  223  A    between atoms: _583  and  _585
REMARK  224  A    between atoms: _585  and  _586
REMARK  225  A    between atoms: _585  and  _588
REMARK  226  A    between atoms: _588  and  _589
REMARK  227  A    between atoms: _595  and  _597
REMARK  228  A    between atoms: _597  and  _598
REMARK  229  A    between atoms: _597  and  _600
REMARK  230  A    between atoms: _600  and  _601
REMARK  231  A    between atoms: _607  and  _609
REMARK  232  A    between atoms: _609  and  _610
REMARK  233  A    between atoms: _613  and  _615
REMARK  234  A    between atoms: _615  and  _616
REMARK  235  A    between atoms: _615  and  _618
REMARK  236  A    between atoms: _618  and  _619
REMARK  237  A    between atoms: _619  and  _620
REMARK  238  A    between atoms: _622  and  _624
REMARK  239  A    between atoms: _624  and  _625
REMARK  240  A    between atoms: _624  and  _627
REMARK  241  A    between atoms: _627  and  _628
REMARK  242  A    between atoms: _628  and  _629
REMARK  243  A    between atoms: _629  and  _630
REMARK  244  A    between atoms: _630  and  _631
REMARK  245  A    between atoms: _635  and  _637
REMARK  246  A    between atoms: _637  and  _638
REMARK  247  A    between atoms: _637  and  _640
REMARK  248  A    between atoms: _640  and  _641
REMARK  249  A    between atoms: _646  and  _647
REMARK  250  A    between atoms: _649  and  _651
REMARK  251  A    between atoms: _651  and  _652
REMARK  252  A    between atoms: _651  and  _654
REMARK  253  A    between atoms: _654  and  _655
REMARK  254  A    between atoms: _660  and  _662
REMARK  255  A    between atoms: _662  and  _663
REMARK  256  A    between atoms: _662  and  _665
REMARK  257  A    between atoms: _665  and  _666
REMARK  258  A    between atoms: _669  and  _671
REMARK  259  A    between atoms: _671  and  _672
REMARK  260  A    between atoms: _675  and  _677
REMARK  261  A    between atoms: _677  and  _678
REMARK  262  A    between atoms: _677  and  _680
REMARK  263  A    between atoms: _680  and  _681
REMARK  264  A    between atoms: _684  and  _686
REMARK  265  A    between atoms: _686  and  _687
REMARK  266  A    between atoms: _686  and  _689
REMARK  267  A    between atoms: _692  and  _694
REMARK  268  A    between atoms: _694  and  _695
REMARK  269  A    between atoms: _694  and  _697
REMARK  270  A    between atoms: _697  and  _698
REMARK  271  A    between atoms: _698  and  _699
REMARK  272  A    between atoms: _702  and  _704
REMARK  273  A    between atoms: _704  and  _705
REMARK  274  A    between atoms: _704  and  _707
REMARK  275  A    between atoms: _707  and  _708
REMARK  276  A    between atoms: _713  and  _714
REMARK  277  A    between atoms: _716  and  _718
REMARK  278  A    between atoms: _718  and  _719
REMARK  279  A    between atoms: _718  and  _721
REMARK  280  A    between atoms: _721  and  _722
REMARK  281  A    between atoms: _722  and  _723
REMARK  282  A    between atoms: _723  and  _724
REMARK  283  A    between atoms: _733  and  _735
REMARK  284  A    between atoms: _735  and  _736
REMARK  285  A    between atoms: _735  and  _738
REMARK  286  A    between atoms: _738  and  _739
REMARK  287  A    between atoms: _744  and  _745
REMARK  288  A    between atoms: _747  and  _749
REMARK  289  A    between atoms: _749  and  _750
REMARK  290  A    between atoms: _749  and  _752
REMARK  291  A    between atoms: _752  and  _753
REMARK  292  A    between atoms: _756  and  _758
REMARK  293  A    between atoms: _758  and  _759
REMARK  294  A    between atoms: _758  and  _761
REMARK  295  A    between atoms: _761  and  _762
REMARK  296  A    between atoms: _764  and  _766
REMARK  297  A    between atoms: _766  and  _767
REMARK  298  A    between atoms: _766  and  _769
REMARK  299  A    between atoms: _769  and  _770
REMARK  300  A    between atoms: _776  and  _778
REMARK  301  A    between atoms: _778  and  _779
REMARK  302  A    between atoms: _778  and  _781
REMARK  303  A    between atoms: _781  and  _782
REMARK  304  A    between atoms: _782  and  _783
REMARK                            x       y       z     vdW  Elec       q    Type
REMARK                         _______ _______ _______ _____ _____    ______ ____
ROOT
ATOM      1  O   HOH     1      20.602  -6.704 -51.687  0.00  0.00    +0.000 OA
ENDROOT
TORSDOF 0
REMARK  Name = ../refined-set-2016/4ca8/4ca8_pocket.pdb
REMARK  304 active torsions:
REMARK  status: ('A' for Active; 'I' for Inactive)
REMARK    1  A    between atoms: _1  and  _3
REMARK    2  A    between atoms: _3  and  _4
REMARK    3  A    between atoms: _3  and  _6
REMARK    4  A    between atoms: _6  and  _7
REMARK    5  A    between atoms: _7  and  _8
REMARK    6  A    between atoms: _11  and  _13
REMARK    7  A    between atoms: _13  and  _14
REMARK    8  A    between atoms: _13  and  _16
REMARK    9  A    between atoms: _16  and  _17
REMARK   10  A    between atoms: _17  and  _18
REMARK   11  A    between atoms: _21  and  _23
REMARK   12  A    between atoms: _23  and  _24
REMARK   13  A    between atoms: _23  and  _26
REMARK   14  A    between atoms: _26  and  _27
REMARK   15  A    between atoms: _32  and  _34
REMARK   16  A    between atoms: _34  and  _35
REMARK   17  A    between atoms: _34  and  _37
REMARK   18  A    between atoms: _37  and  _38
REMARK   19  A    between atoms: _48  and  _50
REMARK   20  A    between atoms: _50  and  _51
REMARK   21  A    between atoms: _50  and  _53
REMARK   22  A    between atoms: _53  and  _54
REMARK   23  A    between atoms: _54  and  _55
REMARK   24  A    between atoms: _60  and  _62
REMARK   25  A    between atoms: _62  and  _63
REMARK   26  A    between atoms: _62  and  _65
REMARK   27  A    between atoms: _65  and  _66
REMARK   28  A    between atoms: _66  and  _67
REMARK   29  A    between atoms: _72  and  _74
REMARK   30  A    between atoms: _74  and  _75
REMARK   31  A    between atoms: _74  and  _77
REMARK   32  A    between atoms: _77  and  _78
REMARK   33  A    between atoms: _80  and  _82
REMARK   34  A    between atoms: _82  and  _83
REMARK   35  A    between atoms: _82  and  _85
REMARK   36  A    between atoms: _85  and  _86
REMARK   37  A    between atoms: _86  and  _87
REMARK   38  A    between atoms: _90  and  _92
REMARK   39  A    between atoms: _92  and  _93
REMARK   40  A    between atoms: _92  and  _95
REMARK   41  A    between atoms: _98  and  _100
REMARK   42  A    between atoms: _100  and  _101
REMARK   43  A    between atoms: _100  and  _103
REMARK   44  A    between atoms: _105  and  _107
REMARK   45  A    between atoms: _107  and  _108
REMARK   46  A    between atoms: _107  and  _110
REMARK   47  A    between atoms: _110  and  _111
REMARK   48  A    between atoms: _116  and  _118
REMARK   49  A    between atoms: _118  and  _119
REMARK   50  A    between atoms: _122  and  _124
REMARK   51  A    between atoms: _124  and  _125
REMARK   52  A    between atoms: _124  and  _127
REMARK   53  A    between atoms: _127  and  _128
REMARK   54  A    between atoms: _130  and  _132
REMARK   55  A    between atoms: _132  and  _133
REMARK   56  A    between atoms: _136  and  _138
REMARK   57  A    between atoms: _138  and  _139
REMARK   58  A    between atoms: _138  and  _141
REMARK   59  A    between atoms: _141  and  _142
REMARK   60  A    between atoms: _152  and  _154
REMARK   61  A    between atoms: _154  and  _155
REMARK   62  A    between atoms: _154  and  _157
REMARK   63  A    between atoms: _157  and  _158
REMARK   64  A    between atoms: _161  and  _163
REMARK   65  A    between atoms: _163  and  _164
REMARK   66  A    between atoms: _163  and  _166
REMARK   67  A    between atoms: _166  and  _167
REMARK   68  A    between atoms: _172  and  _173
REMARK   69  A    between atoms: _175  and  _177
REMARK   70  A    between atoms: _177  and  _178
REMARK   71  A    between atoms: _177  and  _180
REMARK   72  A    between atoms: _180  and  _181
REMARK   73  A    between atoms: _181  and  _182
REMARK   74  A    between atoms: _182  and  _183
REMARK   75  A    between atoms: _192  and  _194
REMARK   76  A    between atoms: _194  and  _195
REMARK   77  A    between atoms: _194  and  _197
REMARK   78  A    between atoms: _197  and  _198
REMARK   79  A    between atoms: _201  and  _203
REMARK   80  A    between atoms: _203  and  _204
REMARK   81  A    between atoms: _203  and  _206
REMARK   82  A    between atoms: _206  and  _207
REMARK   83  A    between atoms: _207  and  _208
REMARK   84  A    between atoms: _208  and  _209
REMARK   85  A    between atoms: _209  and  _210
REMARK   86  A    between atoms: _214  and  _216
REMARK   87  A    between atoms: _216  and  _217
REMARK   88  A    between atoms: _216  and  _219
REMARK   89  A    between atoms: _219  and  _220
REMARK   90  A    between atoms: _220  and  _221
REMARK   91  A    between atoms: _226  and  _228
REMARK   92  A    between atoms: _228  and  _229
REMARK   93  A    between atoms: _228  and  _231
REMARK   94  A    between atoms: _231  and  _232
REMARK   95  A    between atoms: _232  and  _233
REMARK   96  A    between atoms: _233  and  _234
REMARK   97  A    between atoms: _243  and  _245
REMARK   98  A    between atoms: _245  and  _246
REMARK   99  A    between atoms: _245  and  _248
REMARK  100  A    between atoms: _248  and  _249
REMARK  101  A    between atoms: _252  and  _254
REMARK  102  A    between atoms: _254  and  _255
REMARK  103  A    between atoms: _254  and  _257
REMARK  104  A    between atoms: _257  and  _258
REMARK  105  A    between atoms: _258  and  _259
REMARK  106  A    between atoms: _264  and  _266
REMARK  107  A    between atoms: _266  and  _267
REMARK  108  A    between atoms: _266  and  _269
REMARK  109  A    between atoms: _269  and  _270
REMARK  110  A    between atoms: _273  and  _275
REMARK  111  A    between atoms: _275  and  _276
REMARK  112  A    between atoms: _275  and  _278
REMARK  113  A    between atoms: _278  and  _279
REMARK  114  A    between atoms: _279  and  _280
REMARK  115  A    between atoms: _285  and  _287
REMARK  116  A    between atoms: _287  and  _288
REMARK  117  A    between atoms: _287  and  _290
REMARK  118  A    between atoms: _290  and  _291
REMARK  119  A    between atoms: _294  and  _296
REMARK  120  A    between atoms: _296  and  _297
REMARK  121  A    between atoms: _296  and  _299
REMARK  122  A    between atoms: _299  and  _300
REMARK  123  A    between atoms: _306  and  _308
REMARK  124  A    between atoms: _308  and  _309
REMARK  125  A    between atoms: _308  and  _311
REMARK  126  A    between atoms: _311  and  _312
REMARK  127  A    between atoms: _315  and  _317
REMARK  128  A    between atoms: _317  and  _318
REMARK  129  A    between atoms: _317  and  _320
REMARK  130  A    between atoms: _323  and  _325
REMARK  131  A    between atoms: _325  and  _326
REMARK  132  A    between atoms: _325  and  _328
REMARK  133  A    between atoms: _328  and  _329
REMARK  134  A    between atoms: _334  and  _336
REMARK  135  A    between atoms: _347  and  _350
REMARK  136  A    between atoms: _350  and  _351
REMARK  137  A    between atoms: _351  and  _352
REMARK  138  A    between atoms: _357  and  _360
REMARK  139  A    between atoms: _360  and  _361
REMARK  140  A    between atoms: _371  and  _372
REMARK  141  A    between atoms: _380  and  _382
REMARK  142  A    between atoms: _382  and  _383
REMARK  143  A    between atoms: _382  and  _385
REMARK  144  A    between atoms: _385  and  _386
REMARK  145  A    between atoms: _389  and  _391
REMARK  146  A    between atoms: _391  and  _392
REMARK  147  A    between atoms: _391  and  _394
REMARK  148  A    between atoms: _394  and  _395
REMARK  149  A    between atoms: _400  and  _401
REMARK  150  A    between atoms: _403  and  _405
REMARK  151  A    between atoms: _405  and  _406
REMARK  152  A    between atoms: _405  and  _408
REMARK  153  A    between atoms: _408  and  _409
REMARK  154  A    between atoms: _415  and  _417
REMARK  155  A    between atoms: _417  and  _418
REMARK  156  A    between atoms: _417  and  _420
REMARK  157  A    between atoms: _420  and  _421
REMARK  158  A    between atoms: _426  and  _427
REMARK  159  A    between atoms: _429  and  _431
REMARK  160  A    between atoms: _431  and  _432
REMARK  161  A    between atoms: _431  and  _434
REMARK  162  A    between atoms: _434  and  _435
REMARK  163  A    between atoms: _435  and  _436
REMARK  164  A    between atoms: _436  and  _437
REMARK  165  A    between atoms: _446  and  _448
REMARK  166  A    between atoms: _448  and  _449
REMARK  167  A    between atoms: _448  and  _451
REMARK  168  A    between atoms: _451  and  _452
REMARK  169  A    between atoms: _455  and  _457
REMARK  170  A    between atoms: _457  and  _458
REMARK  171  A    between atoms: _460  and  _462
REMARK  172  A    between atoms: _462  and  _463
REMARK  173  A    between atoms: _462  and  _465
REMARK  174  A    between atoms: _465  and  _466
REMARK  175  A    between atoms: _472  and  _473
REMARK  176  A    between atoms: _478  and  _480
REMARK  177  A    between atoms: _480  and  _481
REMARK  178  A    between atoms: _483  and  _485
REMARK  179  A    between atoms: _485  and  _486
REMARK  180  A    between atoms: _485  and  _488
REMARK  181  A    between atoms: _488  and  _489
REMARK  182  A    between atoms: _495  and  _497
REMARK  183  A    between atoms: _497  and  _498
REMARK  184  A    between atoms: _497  and  _500
REMARK  185  A    between atoms: _500  and  _501
REMARK  186  A    between atoms: _506  and  _508
REMARK  187  A    between atoms: _508  and  _509
REMARK  188  A    between atoms: _508  and  _511
REMARK  189  A    between atoms: _511  and  _512
REMARK  190  A    between atoms: _512  and  _513
REMARK  191  A    between atoms: _513  and  _514
REMARK  192  A    between atoms: _514  and  ZN_788
REMARK  193  A    between atoms: _516  and  _518
REMARK  194  A    between atoms: _518  and  _519
REMARK  195  A    between atoms: _522  and  _524
REMARK  196  A    between atoms: _524  and  _525
REMARK  197  A    between atoms: _527  and  _529
REMARK  198  A    between atoms: _529  and  _530
REMARK  199  A    between atoms: _529  and  _532
REMARK  200  A    between atoms: _532  and  _533
REMARK  201  A    between atoms: _536  and  _538
REMARK  202  A    between atoms: _538  and  _539
REMARK  203  A    between atoms: _538  and  _541
REMARK  204  A    between atoms: _544  and  _546
REMARK  205  A    between atoms: _546  and  _547
REMARK  206  A    between atoms: _546  and  _549
REMARK  207  A    between atoms: _549  and  _550
REMARK  208  A    between atoms: _552  and  _554
REMARK  209  A    between atoms: _554  and  _555
REMARK  210  A    between atoms: _554  and  _557
REMARK  211  A    between atoms: _557  and  _558
REMARK  212  A    between atoms: _561  and  _563
REMARK  213  A    between atoms: _563  and  _564
REMARK  214  A    between atoms: _563  and  _566
REMARK  215  A    between atoms: _566  and  _567
REMARK  216  A    between atoms: _570  and  _572
REMARK  217  A    between atoms: _572  and  _573
REMARK  218  A    between atoms: _572  and  _575
REMARK  219  A    between atoms: _575  and  _576
REMARK  220  A    between atoms: _576  and  _577
REMARK  221  A    between atoms: _577  and  _578
REMARK  222  A    between atoms: _578  and  _579
REMARK  223  A    between atoms: _583  and  _585
REMARK  224  A    between atoms: _585  and  _586
REMARK  225  A    between atoms: _585  and  _588
REMARK  226  A    between atoms: _588  and  _589
REMARK  227  A    between atoms: _595  and  _597
REMARK  228  A    between atoms: _597  and  _598
REMARK  229  A    between atoms: _597  and  _600
REMARK  230  A    between atoms: _600  and  _601
REMARK  231  A    between atoms: _607  and  _609
REMARK  232  A    between atoms: _609  and  _610
REMARK  233  A    between atoms: _613  and  _615
REMARK  234  A    between atoms: _615  and  _616
REMARK  235  A    between atoms: _615  and  _618
REMARK  236  A    between atoms: _618  and  _619
REMARK  237  A    between atoms: _619  and  _620
REMARK  238  A    between atoms: _622  and  _624
REMARK  239  A    between atoms: _624  and  _625
REMARK  240  A    between atoms: _624  and  _627
REMARK  241  A    between atoms: _627  and  _628
REMARK  242  A    between atoms: _628  and  _629
REMARK  243  A    between atoms: _629  and  _630
REMARK  244  A    between atoms: _630  and  _631
REMARK  245  A    between atoms: _635  and  _637
REMARK  246  A    between atoms: _637  and  _638
REMARK  247  A    between atoms: _637  and  _640
REMARK  248  A    between atoms: _640  and  _641
REMARK  249  A    between atoms: _646  and  _647
REMARK  250  A    between atoms: _649  and  _651
REMARK  251  A    between atoms: _651  and  _652
REMARK  252  A    between atoms: _651  and  _654
REMARK  253  A    between atoms: _654  and  _655
REMARK  254  A    between atoms: _660  and  _662
REMARK  255  A    between atoms: _662  and  _663
REMARK  256  A    between atoms: _662  and  _665
REMARK  257  A    between atoms: _665  and  _666
REMARK  258  A    between atoms: _669  and  _671
REMARK  259  A    between atoms: _671  and  _672
REMARK  260  A    between atoms: _675  and  _677
REMARK  261  A    between atoms: _677  and  _678
REMARK  262  A    between atoms: _677  and  _680
REMARK  263  A    between atoms: _680  and  _681
REMARK  264  A    between atoms: _684  and  _686
REMARK  265  A    between atoms: _686  and  _687
REMARK  266  A    between atoms: _686  and  _689
REMARK  267  A    between atoms: _692  and  _694
REMARK  268  A    between atoms: _694  and  _695
REMARK  269  A    between atoms: _694  and  _697
REMARK  270  A    between atoms: _697  and  _698
REMARK  271  A    between atoms: _698  and  _699
REMARK  272  A    between atoms: _702  and  _704
REMARK  273  A    between atoms: _704  and  _705
REMARK  274  A    between atoms: _704  and  _707
REMARK  275  A    between atoms: _707  and  _708
REMARK  276  A    between atoms: _713  and  _714
REMARK  277  A    between atoms: _716  and  _718
REMARK  278  A    between atoms: _718  and  _719
REMARK  279  A    between atoms: _718  and  _721
REMARK  280  A    between atoms: _721  and  _722
REMARK  281  A    between atoms: _722  and  _723
REMARK  282  A    between atoms: _723  and  _724
REMARK  283  A    between atoms: _733  and  _735
REMARK  284  A    between atoms: _735  and  _736
REMARK  285  A    between atoms: _735  and  _738
REMARK  286  A    between atoms: _738  and  _739
REMARK  287  A    between atoms: _744  and  _745
REMARK  288  A    between atoms: _747  and  _749
REMARK  289  A    between atoms: _749  and  _750
REMARK  290  A    between atoms: _749  and  _752
REMARK  291  A    between atoms: _752  and  _753
REMARK  292  A    between atoms: _756  and  _758
REMARK  293  A    between atoms: _758  and  _759
REMARK  294  A    between atoms: _758  and  _761
REMARK  295  A    between atoms: _761  and  _762
REMARK  296  A    between atoms: _764  and  _766
REMARK  297  A    between atoms: _766  and  _767
REMARK  298  A    between atoms: _766  and  _769
REMARK  299  A    between atoms: _769  and  _770
REMARK  300  A    between atoms: _776  and  _778
REMARK  301  A    between atoms: _778  and  _779
REMARK  302  A    between atoms: _778  and  _781
REMARK  303  A    between atoms: _781  and  _782
REMARK  304  A    between atoms: _782  and  _783
REMARK                            x       y       z     vdW  Elec       q    Type
REMARK                         _______ _______ _______ _____ _____    ______ ____
ROOT
ATOM      1  O   HOH     1      23.771  -4.723 -36.991  0.00  0.00    +0.000 OA
ENDROOT
TORSDOF 0
REMARK  Name = ../refined-set-2016/4ca8/4ca8_pocket.pdb
REMARK  304 active torsions:
REMARK  status: ('A' for Active; 'I' for Inactive)
REMARK    1  A    between atoms: _1  and  _3
REMARK    2  A    between atoms: _3  and  _4
REMARK    3  A    between atoms: _3  and  _6
REMARK    4  A    between atoms: _6  and  _7
REMARK    5  A    between atoms: _7  and  _8
REMARK    6  A    between atoms: _11  and  _13
REMARK    7  A    between atoms: _13  and  _14
REMARK    8  A    between atoms: _13  and  _16
REMARK    9  A    between atoms: _16  and  _17
REMARK   10  A    between atoms: _17  and  _18
REMARK   11  A    between atoms: _21  and  _23
REMARK   12  A    between atoms: _23  and  _24
REMARK   13  A    between atoms: _23  and  _26
REMARK   14  A    between atoms: _26  and  _27
REMARK   15  A    between atoms: _32  and  _34
REMARK   16  A    between atoms: _34  and  _35
REMARK   17  A    between atoms: _34  and  _37
REMARK   18  A    between atoms: _37  and  _38
REMARK   19  A    between atoms: _48  and  _50
REMARK   20  A    between atoms: _50  and  _51
REMARK   21  A    between atoms: _50  and  _53
REMARK   22  A    between atoms: _53  and  _54
REMARK   23  A    between atoms: _54  and  _55
REMARK   24  A    between atoms: _60  and  _62
REMARK   25  A    between atoms: _62  and  _63
REMARK   26  A    between atoms: _62  and  _65
REMARK   27  A    between atoms: _65  and  _66
REMARK   28  A    between atoms: _66  and  _67
REMARK   29  A    between atoms: _72  and  _74
REMARK   30  A    between atoms: _74  and  _75
REMARK   31  A    between atoms: _74  and  _77
REMARK   32  A    between atoms: _77  and  _78
REMARK   33  A    between atoms: _80  and  _82
REMARK   34  A    between atoms: _82  and  _83
REMARK   35  A    between atoms: _82  and  _85
REMARK   36  A    between atoms: _85  and  _86
REMARK   37  A    between atoms: _86  and  _87
REMARK   38  A    between atoms: _90  and  _92
REMARK   39  A    between atoms: _92  and  _93
REMARK   40  A    between atoms: _92  and  _95
REMARK   41  A    between atoms: _98  and  _100
REMARK   42  A    between atoms: _100  and  _101
REMARK   43  A    between atoms: _100  and  _103
REMARK   44  A    between atoms: _105  and  _107
REMARK   45  A    between atoms: _107  and  _108
REMARK   46  A    between atoms: _107  and  _110
REMARK   47  A    between atoms: _110  and  _111
REMARK   48  A    between atoms: _116  and  _118
REMARK   49  A    between atoms: _118  and  _119
REMARK   50  A    between atoms: _122  and  _124
REMARK   51  A    between atoms: _124  and  _125
REMARK   52  A    between atoms: _124  and  _127
REMARK   53  A    between atoms: _127  and  _128
REMARK   54  A    between atoms: _130  and  _132
REMARK   55  A    between atoms: _132  and  _133
REMARK   56  A    between atoms: _136  and  _138
REMARK   57  A    between atoms: _138  and  _139
REMARK   58  A    between atoms: _138  and  _141
REMARK   59  A    between atoms: _141  and  _142
REMARK   60  A    between atoms: _152  and  _154
REMARK   61  A    between atoms: _154  and  _155
REMARK   62  A    between atoms: _154  and  _157
REMARK   63  A    between atoms: _157  and  _158
REMARK   64  A    between atoms: _161  and  _163
REMARK   65  A    between atoms: _163  and  _164
REMARK   66  A    between atoms: _163  and  _166
REMARK   67  A    between atoms: _166  and  _167
REMARK   68  A    between atoms: _172  and  _173
REMARK   69  A    between atoms: _175  and  _177
REMARK   70  A    between atoms: _177  and  _178
REMARK   71  A    between atoms: _177  and  _180
REMARK   72  A    between atoms: _180  and  _181
REMARK   73  A    between atoms: _181  and  _182
REMARK   74  A    between atoms: _182  and  _183
REMARK   75  A    between atoms: _192  and  _194
REMARK   76  A    between atoms: _194  and  _195
REMARK   77  A    between atoms: _194  and  _197
REMARK   78  A    between atoms: _197  and  _198
REMARK   79  A    between atoms: _201  and  _203
REMARK   80  A    between atoms: _203  and  _204
REMARK   81  A    between atoms: _203  and  _206
REMARK   82  A    between atoms: _206  and  _207
REMARK   83  A    between atoms: _207  and  _208
REMARK   84  A    between atoms: _208  and  _209
REMARK   85  A    between atoms: _209  and  _210
REMARK   86  A    between atoms: _214  and  _216
REMARK   87  A    between atoms: _216  and  _217
REMARK   88  A    between atoms: _216  and  _219
REMARK   89  A    between atoms: _219  and  _220
REMARK   90  A    between atoms: _220  and  _221
REMARK   91  A    between atoms: _226  and  _228
REMARK   92  A    between atoms: _228  and  _229
REMARK   93  A    between atoms: _228  and  _231
REMARK   94  A    between atoms: _231  and  _232
REMARK   95  A    between atoms: _232  and  _233
REMARK   96  A    between atoms: _233  and  _234
REMARK   97  A    between atoms: _243  and  _245
REMARK   98  A    between atoms: _245  and  _246
REMARK   99  A    between atoms: _245  and  _248
REMARK  100  A    between atoms: _248  and  _249
REMARK  101  A    between atoms: _252  and  _254
REMARK  102  A    between atoms: _254  and  _255
REMARK  103  A    between atoms: _254  and  _257
REMARK  104  A    between atoms: _257  and  _258
REMARK  105  A    between atoms: _258  and  _259
REMARK  106  A    between atoms: _264  and  _266
REMARK  107  A    between atoms: _266  and  _267
REMARK  108  A    between atoms: _266  and  _269
REMARK  109  A    between atoms: _269  and  _270
REMARK  110  A    between atoms: _273  and  _275
REMARK  111  A    between atoms: _275  and  _276
REMARK  112  A    between atoms: _275  and  _278
REMARK  113  A    between atoms: _278  and  _279
REMARK  114  A    between atoms: _279  and  _280
REMARK  115  A    between atoms: _285  and  _287
REMARK  116  A    between atoms: _287  and  _288
REMARK  117  A    between atoms: _287  and  _290
REMARK  118  A    between atoms: _290  and  _291
REMARK  119  A    between atoms: _294  and  _296
REMARK  120  A    between atoms: _296  and  _297
REMARK  121  A    between atoms: _296  and  _299
REMARK  122  A    between atoms: _299  and  _300
REMARK  123  A    between atoms: _306  and  _308
REMARK  124  A    between atoms: _308  and  _309
REMARK  125  A    between atoms: _308  and  _311
REMARK  126  A    between atoms: _311  and  _312
REMARK  127  A    between atoms: _315  and  _317
REMARK  128  A    between atoms: _317  and  _318
REMARK  129  A    between atoms: _317  and  _320
REMARK  130  A    between atoms: _323  and  _325
REMARK  131  A    between atoms: _325  and  _326
REMARK  132  A    between atoms: _325  and  _328
REMARK  133  A    between atoms: _328  and  _329
REMARK  134  A    between atoms: _334  and  _336
REMARK  135  A    between atoms: _347  and  _350
REMARK  136  A    between atoms: _350  and  _351
REMARK  137  A    between atoms: _351  and  _352
REMARK  138  A    between atoms: _357  and  _360
REMARK  139  A    between atoms: _360  and  _361
REMARK  140  A    between atoms: _371  and  _372
REMARK  141  A    between atoms: _380  and  _382
REMARK  142  A    between atoms: _382  and  _383
REMARK  143  A    between atoms: _382  and  _385
REMARK  144  A    between atoms: _385  and  _386
REMARK  145  A    between atoms: _389  and  _391
REMARK  146  A    between atoms: _391  and  _392
REMARK  147  A    between atoms: _391  and  _394
REMARK  148  A    between atoms: _394  and  _395
REMARK  149  A    between atoms: _400  and  _401
REMARK  150  A    between atoms: _403  and  _405
REMARK  151  A    between atoms: _405  and  _406
REMARK  152  A    between atoms: _405  and  _408
REMARK  153  A    between atoms: _408  and  _409
REMARK  154  A    between atoms: _415  and  _417
REMARK  155  A    between atoms: _417  and  _418
REMARK  156  A    between atoms: _417  and  _420
REMARK  157  A    between atoms: _420  and  _421
REMARK  158  A    between atoms: _426  and  _427
REMARK  159  A    between atoms: _429  and  _431
REMARK  160  A    between atoms: _431  and  _432
REMARK  161  A    between atoms: _431  and  _434
REMARK  162  A    between atoms: _434  and  _435
REMARK  163  A    between atoms: _435  and  _436
REMARK  164  A    between atoms: _436  and  _437
REMARK  165  A    between atoms: _446  and  _448
REMARK  166  A    between atoms: _448  and  _449
REMARK  167  A    between atoms: _448  and  _451
REMARK  168  A    between atoms: _451  and  _452
REMARK  169  A    between atoms: _455  and  _457
REMARK  170  A    between atoms: _457  and  _458
REMARK  171  A    between atoms: _460  and  _462
REMARK  172  A    between atoms: _462  and  _463
REMARK  173  A    between atoms: _462  and  _465
REMARK  174  A    between atoms: _465  and  _466
REMARK  175  A    between atoms: _472  and  _473
REMARK  176  A    between atoms: _478  and  _480
REMARK  177  A    between atoms: _480  and  _481
REMARK  178  A    between atoms: _483  and  _485
REMARK  179  A    between atoms: _485  and  _486
REMARK  180  A    between atoms: _485  and  _488
REMARK  181  A    between atoms: _488  and  _489
REMARK  182  A    between atoms: _495  and  _497
REMARK  183  A    between atoms: _497  and  _498
REMARK  184  A    between atoms: _497  and  _500
REMARK  185  A    between atoms: _500  and  _501
REMARK  186  A    between atoms: _506  and  _508
REMARK  187  A    between atoms: _508  and  _509
REMARK  188  A    between atoms: _508  and  _511
REMARK  189  A    between atoms: _511  and  _512
REMARK  190  A    between atoms: _512  and  _513
REMARK  191  A    between atoms: _513  and  _514
REMARK  192  A    between atoms: _514  and  ZN_788
REMARK  193  A    between atoms: _516  and  _518
REMARK  194  A    between atoms: _518  and  _519
REMARK  195  A    between atoms: _522  and  _524
REMARK  196  A    between atoms: _524  and  _525
REMARK  197  A    between atoms: _527  and  _529
REMARK  198  A    between atoms: _529  and  _530
REMARK  199  A    between atoms: _529  and  _532
REMARK  200  A    between atoms: _532  and  _533
REMARK  201  A    between atoms: _536  and  _538
REMARK  202  A    between atoms: _538  and  _539
REMARK  203  A    between atoms: _538  and  _541
REMARK  204  A    between atoms: _544  and  _546
REMARK  205  A    between atoms: _546  and  _547
REMARK  206  A    between atoms: _546  and  _549
REMARK  207  A    between atoms: _549  and  _550
REMARK  208  A    between atoms: _552  and  _554
REMARK  209  A    between atoms: _554  and  _555
REMARK  210  A    between atoms: _554  and  _557
REMARK  211  A    between atoms: _557  and  _558
REMARK  212  A    between atoms: _561  and  _563
REMARK  213  A    between atoms: _563  and  _564
REMARK  214  A    between atoms: _563  and  _566
REMARK  215  A    between atoms: _566  and  _567
REMARK  216  A    between atoms: _570  and  _572
REMARK  217  A    between atoms: _572  and  _573
REMARK  218  A    between atoms: _572  and  _575
REMARK  219  A    between atoms: _575  and  _576
REMARK  220  A    between atoms: _576  and  _577
REMARK  221  A    between atoms: _577  and  _578
REMARK  222  A    between atoms: _578  and  _579
REMARK  223  A    between atoms: _583  and  _585
REMARK  224  A    between atoms: _585  and  _586
REMARK  225  A    between atoms: _585  and  _588
REMARK  226  A    between atoms: _588  and  _589
REMARK  227  A    between atoms: _595  and  _597
REMARK  228  A    between atoms: _597  and  _598
REMARK  229  A    between atoms: _597  and  _600
REMARK  230  A    between atoms: _600  and  _601
REMARK  231  A    between atoms: _607  and  _609
REMARK  232  A    between atoms: _609  and  _610
REMARK  233  A    between atoms: _613  and  _615
REMARK  234  A    between atoms: _615  and  _616
REMARK  235  A    between atoms: _615  and  _618
REMARK  236  A    between atoms: _618  and  _619
REMARK  237  A    between atoms: _619  and  _620
REMARK  238  A    between atoms: _622  and  _624
REMARK  239  A    between atoms: _624  and  _625
REMARK  240  A    between atoms: _624  and  _627
REMARK  241  A    between atoms: _627  and  _628
REMARK  242  A    between atoms: _628  and  _629
REMARK  243  A    between atoms: _629  and  _630
REMARK  244  A    between atoms: _630  and  _631
REMARK  245  A    between atoms: _635  and  _637
REMARK  246  A    between atoms: _637  and  _638
REMARK  247  A    between atoms: _637  and  _640
REMARK  248  A    between atoms: _640  and  _641
REMARK  249  A    between atoms: _646  and  _647
REMARK  250  A    between atoms: _649  and  _651
REMARK  251  A    between atoms: _651  and  _652
REMARK  252  A    between atoms: _651  and  _654
REMARK  253  A    between atoms: _654  and  _655
REMARK  254  A    between atoms: _660  and  _662
REMARK  255  A    between atoms: _662  and  _663
REMARK  256  A    between atoms: _662  and  _665
REMARK  257  A    between atoms: _665  and  _666
REMARK  258  A    between atoms: _669  and  _671
REMARK  259  A    between atoms: _671  and  _672
REMARK  260  A    between atoms: _675  and  _677
REMARK  261  A    between atoms: _677  and  _678
REMARK  262  A    between atoms: _677  and  _680
REMARK  263  A    between atoms: _680  and  _681
REMARK  264  A    between atoms: _684  and  _686
REMARK  265  A    between atoms: _686  and  _687
REMARK  266  A    between atoms: _686  and  _689
REMARK  267  A    between atoms: _692  and  _694
REMARK  268  A    between atoms: _694  and  _695
REMARK  269  A    between atoms: _694  and  _697
REMARK  270  A    between atoms: _697  and  _698
REMARK  271  A    between atoms: _698  and  _699
REMARK  272  A    between atoms: _702  and  _704
REMARK  273  A    between atoms: _704  and  _705
REMARK  274  A    between atoms: _704  and  _707
REMARK  275  A    between atoms: _707  and  _708
REMARK  276  A    between atoms: _713  and  _714
REMARK  277  A    between atoms: _716  and  _718
REMARK  278  A    between atoms: _718  and  _719
REMARK  279  A    between atoms: _718  and  _721
REMARK  280  A    between atoms: _721  and  _722
REMARK  281  A    between atoms: _722  and  _723
REMARK  282  A    between atoms: _723  and  _724
REMARK  283  A    between atoms: _733  and  _735
REMARK  284  A    between atoms: _735  and  _736
REMARK  285  A    between atoms: _735  and  _738
REMARK  286  A    between atoms: _738  and  _739
REMARK  287  A    between atoms: _744  and  _745
REMARK  288  A    between atoms: _747  and  _749
REMARK  289  A    between atoms: _749  and  _750
REMARK  290  A    between atoms: _749  and  _752
REMARK  291  A    between atoms: _752  and  _753
REMARK  292  A    between atoms: _756  and  _758
REMARK  293  A    between atoms: _758  and  _759
REMARK  294  A    between atoms: _758  and  _761
REMARK  295  A    between atoms: _761  and  _762
REMARK  296  A    between atoms: _764  and  _766
REMARK  297  A    between atoms: _766  and  _767
REMARK  298  A    between atoms: _766  and  _769
REMARK  299  A    between atoms: _769  and  _770
REMARK  300  A    between atoms: _776  and  _778
REMARK  301  A    between atoms: _778  and  _779
REMARK  302  A    between atoms: _778  and  _781
REMARK  303  A    between atoms: _781  and  _782
REMARK  304  A    between atoms: _782  and  _783
REMARK                            x       y       z     vdW  Elec       q    Type
REMARK                         _______ _______ _______ _____ _____    ______ ____
ROOT
ATOM      1  O   HOH     1      25.290  13.604 -35.303  0.00  0.00    +0.000 OA
ENDROOT
TORSDOF 0
REMARK  Name = ../refined-set-2016/4ca8/4ca8_pocket.pdb
REMARK  304 active torsions:
REMARK  status: ('A' for Active; 'I' for Inactive)
REMARK    1  A    between atoms: _1  and  _3
REMARK    2  A    between atoms: _3  and  _4
REMARK    3  A    between atoms: _3  and  _6
REMARK    4  A    between atoms: _6  and  _7
REMARK    5  A    between atoms: _7  and  _8
REMARK    6  A    between atoms: _11  and  _13
REMARK    7  A    between atoms: _13  and  _14
REMARK    8  A    between atoms: _13  and  _16
REMARK    9  A    between atoms: _16  and  _17
REMARK   10  A    between atoms: _17  and  _18
REMARK   11  A    between atoms: _21  and  _23
REMARK   12  A    between atoms: _23  and  _24
REMARK   13  A    between atoms: _23  and  _26
REMARK   14  A    between atoms: _26  and  _27
REMARK   15  A    between atoms: _32  and  _34
REMARK   16  A    between atoms: _34  and  _35
REMARK   17  A    between atoms: _34  and  _37
REMARK   18  A    between atoms: _37  and  _38
REMARK   19  A    between atoms: _48  and  _50
REMARK   20  A    between atoms: _50  and  _51
REMARK   21  A    between atoms: _50  and  _53
REMARK   22  A    between atoms: _53  and  _54
REMARK   23  A    between atoms: _54  and  _55
REMARK   24  A    between atoms: _60  and  _62
REMARK   25  A    between atoms: _62  and  _63
REMARK   26  A    between atoms: _62  and  _65
REMARK   27  A    between atoms: _65  and  _66
REMARK   28  A    between atoms: _66  and  _67
REMARK   29  A    between atoms: _72  and  _74
REMARK   30  A    between atoms: _74  and  _75
REMARK   31  A    between atoms: _74  and  _77
REMARK   32  A    between atoms: _77  and  _78
REMARK   33  A    between atoms: _80  and  _82
REMARK   34  A    between atoms: _82  and  _83
REMARK   35  A    between atoms: _82  and  _85
REMARK   36  A    between atoms: _85  and  _86
REMARK   37  A    between atoms: _86  and  _87
REMARK   38  A    between atoms: _90  and  _92
REMARK   39  A    between atoms: _92  and  _93
REMARK   40  A    between atoms: _92  and  _95
REMARK   41  A    between atoms: _98  and  _100
REMARK   42  A    between atoms: _100  and  _101
REMARK   43  A    between atoms: _100  and  _103
REMARK   44  A    between atoms: _105  and  _107
REMARK   45  A    between atoms: _107  and  _108
REMARK   46  A    between atoms: _107  and  _110
REMARK   47  A    between atoms: _110  and  _111
REMARK   48  A    between atoms: _116  and  _118
REMARK   49  A    between atoms: _118  and  _119
REMARK   50  A    between atoms: _122  and  _124
REMARK   51  A    between atoms: _124  and  _125
REMARK   52  A    between atoms: _124  and  _127
REMARK   53  A    between atoms: _127  and  _128
REMARK   54  A    between atoms: _130  and  _132
REMARK   55  A    between atoms: _132  and  _133
REMARK   56  A    between atoms: _136  and  _138
REMARK   57  A    between atoms: _138  and  _139
REMARK   58  A    between atoms: _138  and  _141
REMARK   59  A    between atoms: _141  and  _142
REMARK   60  A    between atoms: _152  and  _154
REMARK   61  A    between atoms: _154  and  _155
REMARK   62  A    between atoms: _154  and  _157
REMARK   63  A    between atoms: _157  and  _158
REMARK   64  A    between atoms: _161  and  _163
REMARK   65  A    between atoms: _163  and  _164
REMARK   66  A    between atoms: _163  and  _166
REMARK   67  A    between atoms: _166  and  _167
REMARK   68  A    between atoms: _172  and  _173
REMARK   69  A    between atoms: _175  and  _177
REMARK   70  A    between atoms: _177  and  _178
REMARK   71  A    between atoms: _177  and  _180
REMARK   72  A    between atoms: _180  and  _181
REMARK   73  A    between atoms: _181  and  _182
REMARK   74  A    between atoms: _182  and  _183
REMARK   75  A    between atoms: _192  and  _194
REMARK   76  A    between atoms: _194  and  _195
REMARK   77  A    between atoms: _194  and  _197
REMARK   78  A    between atoms: _197  and  _198
REMARK   79  A    between atoms: _201  and  _203
REMARK   80  A    between atoms: _203  and  _204
REMARK   81  A    between atoms: _203  and  _206
REMARK   82  A    between atoms: _206  and  _207
REMARK   83  A    between atoms: _207  and  _208
REMARK   84  A    between atoms: _208  and  _209
REMARK   85  A    between atoms: _209  and  _210
REMARK   86  A    between atoms: _214  and  _216
REMARK   87  A    between atoms: _216  and  _217
REMARK   88  A    between atoms: _216  and  _219
REMARK   89  A    between atoms: _219  and  _220
REMARK   90  A    between atoms: _220  and  _221
REMARK   91  A    between atoms: _226  and  _228
REMARK   92  A    between atoms: _228  and  _229
REMARK   93  A    between atoms: _228  and  _231
REMARK   94  A    between atoms: _231  and  _232
REMARK   95  A    between atoms: _232  and  _233
REMARK   96  A    between atoms: _233  and  _234
REMARK   97  A    between atoms: _243  and  _245
REMARK   98  A    between atoms: _245  and  _246
REMARK   99  A    between atoms: _245  and  _248
REMARK  100  A    between atoms: _248  and  _249
REMARK  101  A    between atoms: _252  and  _254
REMARK  102  A    between atoms: _254  and  _255
REMARK  103  A    between atoms: _254  and  _257
REMARK  104  A    between atoms: _257  and  _258
REMARK  105  A    between atoms: _258  and  _259
REMARK  106  A    between atoms: _264  and  _266
REMARK  107  A    between atoms: _266  and  _267
REMARK  108  A    between atoms: _266  and  _269
REMARK  109  A    between atoms: _269  and  _270
REMARK  110  A    between atoms: _273  and  _275
REMARK  111  A    between atoms: _275  and  _276
REMARK  112  A    between atoms: _275  and  _278
REMARK  113  A    between atoms: _278  and  _279
REMARK  114  A    between atoms: _279  and  _280
REMARK  115  A    between atoms: _285  and  _287
REMARK  116  A    between atoms: _287  and  _288
REMARK  117  A    between atoms: _287  and  _290
REMARK  118  A    between atoms: _290  and  _291
REMARK  119  A    between atoms: _294  and  _296
REMARK  120  A    between atoms: _296  and  _297
REMARK  121  A    between atoms: _296  and  _299
REMARK  122  A    between atoms: _299  and  _300
REMARK  123  A    between atoms: _306  and  _308
REMARK  124  A    between atoms: _308  and  _309
REMARK  125  A    between atoms: _308  and  _311
REMARK  126  A    between atoms: _311  and  _312
REMARK  127  A    between atoms: _315  and  _317
REMARK  128  A    between atoms: _317  and  _318
REMARK  129  A    between atoms: _317  and  _320
REMARK  130  A    between atoms: _323  and  _325
REMARK  131  A    between atoms: _325  and  _326
REMARK  132  A    between atoms: _325  and  _328
REMARK  133  A    between atoms: _328  and  _329
REMARK  134  A    between atoms: _334  and  _336
REMARK  135  A    between atoms: _347  and  _350
REMARK  136  A    between atoms: _350  and  _351
REMARK  137  A    between atoms: _351  and  _352
REMARK  138  A    between atoms: _357  and  _360
REMARK  139  A    between atoms: _360  and  _361
REMARK  140  A    between atoms: _371  and  _372
REMARK  141  A    between atoms: _380  and  _382
REMARK  142  A    between atoms: _382  and  _383
REMARK  143  A    between atoms: _382  and  _385
REMARK  144  A    between atoms: _385  and  _386
REMARK  145  A    between atoms: _389  and  _391
REMARK  146  A    between atoms: _391  and  _392
REMARK  147  A    between atoms: _391  and  _394
REMARK  148  A    between atoms: _394  and  _395
REMARK  149  A    between atoms: _400  and  _401
REMARK  150  A    between atoms: _403  and  _405
REMARK  151  A    between atoms: _405  and  _406
REMARK  152  A    between atoms: _405  and  _408
REMARK  153  A    between atoms: _408  and  _409
REMARK  154  A    between atoms: _415  and  _417
REMARK  155  A    between atoms: _417  and  _418
REMARK  156  A    between atoms: _417  and  _420
REMARK  157  A    between atoms: _420  and  _421
REMARK  158  A    between atoms: _426  and  _427
REMARK  159  A    between atoms: _429  and  _431
REMARK  160  A    between atoms: _431  and  _432
REMARK  161  A    between atoms: _431  and  _434
REMARK  162  A    between atoms: _434  and  _435
REMARK  163  A    between atoms: _435  and  _436
REMARK  164  A    between atoms: _436  and  _437
REMARK  165  A    between atoms: _446  and  _448
REMARK  166  A    between atoms: _448  and  _449
REMARK  167  A    between atoms: _448  and  _451
REMARK  168  A    between atoms: _451  and  _452
REMARK  169  A    between atoms: _455  and  _457
REMARK  170  A    between atoms: _457  and  _458
REMARK  171  A    between atoms: _460  and  _462
REMARK  172  A    between atoms: _462  and  _463
REMARK  173  A    between atoms: _462  and  _465
REMARK  174  A    between atoms: _465  and  _466
REMARK  175  A    between atoms: _472  and  _473
REMARK  176  A    between atoms: _478  and  _480
REMARK  177  A    between atoms: _480  and  _481
REMARK  178  A    between atoms: _483  and  _485
REMARK  179  A    between atoms: _485  and  _486
REMARK  180  A    between atoms: _485  and  _488
REMARK  181  A    between atoms: _488  and  _489
REMARK  182  A    between atoms: _495  and  _497
REMARK  183  A    between atoms: _497  and  _498
REMARK  184  A    between atoms: _497  and  _500
REMARK  185  A    between atoms: _500  and  _501
REMARK  186  A    between atoms: _506  and  _508
REMARK  187  A    between atoms: _508  and  _509
REMARK  188  A    between atoms: _508  and  _511
REMARK  189  A    between atoms: _511  and  _512
REMARK  190  A    between atoms: _512  and  _513
REMARK  191  A    between atoms: _513  and  _514
REMARK  192  A    between atoms: _514  and  ZN_788
REMARK  193  A    between atoms: _516  and  _518
REMARK  194  A    between atoms: _518  and  _519
REMARK  195  A    between atoms: _522  and  _524
REMARK  196  A    between atoms: _524  and  _525
REMARK  197  A    between atoms: _527  and  _529
REMARK  198  A    between atoms: _529  and  _530
REMARK  199  A    between atoms: _529  and  _532
REMARK  200  A    between atoms: _532  and  _533
REMARK  201  A    between atoms: _536  and  _538
REMARK  202  A    between atoms: _538  and  _539
REMARK  203  A    between atoms: _538  and  _541
REMARK  204  A    between atoms: _544  and  _546
REMARK  205  A    between atoms: _546  and  _547
REMARK  206  A    between atoms: _546  and  _549
REMARK  207  A    between atoms: _549  and  _550
REMARK  208  A    between atoms: _552  and  _554
REMARK  209  A    between atoms: _554  and  _555
REMARK  210  A    between atoms: _554  and  _557
REMARK  211  A    between atoms: _557  and  _558
REMARK  212  A    between atoms: _561  and  _563
REMARK  213  A    between atoms: _563  and  _564
REMARK  214  A    between atoms: _563  and  _566
REMARK  215  A    between atoms: _566  and  _567
REMARK  216  A    between atoms: _570  and  _572
REMARK  217  A    between atoms: _572  and  _573
REMARK  218  A    between atoms: _572  and  _575
REMARK  219  A    between atoms: _575  and  _576
REMARK  220  A    between atoms: _576  and  _577
REMARK  221  A    between atoms: _577  and  _578
REMARK  222  A    between atoms: _578  and  _579
REMARK  223  A    between atoms: _583  and  _585
REMARK  224  A    between atoms: _585  and  _586
REMARK  225  A    between atoms: _585  and  _588
REMARK  226  A    between atoms: _588  and  _589
REMARK  227  A    between atoms: _595  and  _597
REMARK  228  A    between atoms: _597  and  _598
REMARK  229  A    between atoms: _597  and  _600
REMARK  230  A    between atoms: _600  and  _601
REMARK  231  A    between atoms: _607  and  _609
REMARK  232  A    between atoms: _609  and  _610
REMARK  233  A    between atoms: _613  and  _615
REMARK  234  A    between atoms: _615  and  _616
REMARK  235  A    between atoms: _615  and  _618
REMARK  236  A    between atoms: _618  and  _619
REMARK  237  A    between atoms: _619  and  _620
REMARK  238  A    between atoms: _622  and  _624
REMARK  239  A    between atoms: _624  and  _625
REMARK  240  A    between atoms: _624  and  _627
REMARK  241  A    between atoms: _627  and  _628
REMARK  242  A    between atoms: _628  and  _629
REMARK  243  A    between atoms: _629  and  _630
REMARK  244  A    between atoms: _630  and  _631
REMARK  245  A    between atoms: _635  and  _637
REMARK  246  A    between atoms: _637  and  _638
REMARK  247  A    between atoms: _637  and  _640
REMARK  248  A    between atoms: _640  and  _641
REMARK  249  A    between atoms: _646  and  _647
REMARK  250  A    between atoms: _649  and  _651
REMARK  251  A    between atoms: _651  and  _652
REMARK  252  A    between atoms: _651  and  _654
REMARK  253  A    between atoms: _654  and  _655
REMARK  254  A    between atoms: _660  and  _662
REMARK  255  A    between atoms: _662  and  _663
REMARK  256  A    between atoms: _662  and  _665
REMARK  257  A    between atoms: _665  and  _666
REMARK  258  A    between atoms: _669  and  _671
REMARK  259  A    between atoms: _671  and  _672
REMARK  260  A    between atoms: _675  and  _677
REMARK  261  A    between atoms: _677  and  _678
REMARK  262  A    between atoms: _677  and  _680
REMARK  263  A    between atoms: _680  and  _681
REMARK  264  A    between atoms: _684  and  _686
REMARK  265  A    between atoms: _686  and  _687
REMARK  266  A    between atoms: _686  and  _689
REMARK  267  A    between atoms: _692  and  _694
REMARK  268  A    between atoms: _694  and  _695
REMARK  269  A    between atoms: _694  and  _697
REMARK  270  A    between atoms: _697  and  _698
REMARK  271  A    between atoms: _698  and  _699
REMARK  272  A    between atoms: _702  and  _704
REMARK  273  A    between atoms: _704  and  _705
REMARK  274  A    between atoms: _704  and  _707
REMARK  275  A    between atoms: _707  and  _708
REMARK  276  A    between atoms: _713  and  _714
REMARK  277  A    between atoms: _716  and  _718
REMARK  278  A    between atoms: _718  and  _719
REMARK  279  A    between atoms: _718  and  _721
REMARK  280  A    between atoms: _721  and  _722
REMARK  281  A    between atoms: _722  and  _723
REMARK  282  A    between atoms: _723  and  _724
REMARK  283  A    between atoms: _733  and  _735
REMARK  284  A    between atoms: _735  and  _736
REMARK  285  A    between atoms: _735  and  _738
REMARK  286  A    between atoms: _738  and  _739
REMARK  287  A    between atoms: _744  and  _745
REMARK  288  A    between atoms: _747  and  _749
REMARK  289  A    between atoms: _749  and  _750
REMARK  290  A    between atoms: _749  and  _752
REMARK  291  A    between atoms: _752  and  _753
REMARK  292  A    between atoms: _756  and  _758
REMARK  293  A    between atoms: _758  and  _759
REMARK  294  A    between atoms: _758  and  _761
REMARK  295  A    between atoms: _761  and  _762
REMARK  296  A    between atoms: _764  and  _766
REMARK  297  A    between atoms: _766  and  _767
REMARK  298  A    between atoms: _766  and  _769
REMARK  299  A    between atoms: _769  and  _770
REMARK  300  A    between atoms: _776  and  _778
REMARK  301  A    between atoms: _778  and  _779
REMARK  302  A    between atoms: _778  and  _781
REMARK  303  A    between atoms: _781  and  _782
REMARK  304  A    between atoms: _782  and  _783
REMARK                            x       y       z     vdW  Elec       q    Type
REMARK                         _______ _______ _______ _____ _____    ______ ____
ROOT
ATOM      1  O   HOH     1      28.047  18.838 -41.648  0.00  0.00    +0.000 OA
ENDROOT
TORSDOF 0
REMARK  Name = ../refined-set-2016/4ca8/4ca8_pocket.pdb
REMARK  304 active torsions:
REMARK  status: ('A' for Active; 'I' for Inactive)
REMARK    1  A    between atoms: _1  and  _3
REMARK    2  A    between atoms: _3  and  _4
REMARK    3  A    between atoms: _3  and  _6
REMARK    4  A    between atoms: _6  and  _7
REMARK    5  A    between atoms: _7  and  _8
REMARK    6  A    between atoms: _11  and  _13
REMARK    7  A    between atoms: _13  and  _14
REMARK    8  A    between atoms: _13  and  _16
REMARK    9  A    between atoms: _16  and  _17
REMARK   10  A    between atoms: _17  and  _18
REMARK   11  A    between atoms: _21  and  _23
REMARK   12  A    between atoms: _23  and  _24
REMARK   13  A    between atoms: _23  and  _26
REMARK   14  A    between atoms: _26  and  _27
REMARK   15  A    between atoms: _32  and  _34
REMARK   16  A    between atoms: _34  and  _35
REMARK   17  A    between atoms: _34  and  _37
REMARK   18  A    between atoms: _37  and  _38
REMARK   19  A    between atoms: _48  and  _50
REMARK   20  A    between atoms: _50  and  _51
REMARK   21  A    between atoms: _50  and  _53
REMARK   22  A    between atoms: _53  and  _54
REMARK   23  A    between atoms: _54  and  _55
REMARK   24  A    between atoms: _60  and  _62
REMARK   25  A    between atoms: _62  and  _63
REMARK   26  A    between atoms: _62  and  _65
REMARK   27  A    between atoms: _65  and  _66
REMARK   28  A    between atoms: _66  and  _67
REMARK   29  A    between atoms: _72  and  _74
REMARK   30  A    between atoms: _74  and  _75
REMARK   31  A    between atoms: _74  and  _77
REMARK   32  A    between atoms: _77  and  _78
REMARK   33  A    between atoms: _80  and  _82
REMARK   34  A    between atoms: _82  and  _83
REMARK   35  A    between atoms: _82  and  _85
REMARK   36  A    between atoms: _85  and  _86
REMARK   37  A    between atoms: _86  and  _87
REMARK   38  A    between atoms: _90  and  _92
REMARK   39  A    between atoms: _92  and  _93
REMARK   40  A    between atoms: _92  and  _95
REMARK   41  A    between atoms: _98  and  _100
REMARK   42  A    between atoms: _100  and  _101
REMARK   43  A    between atoms: _100  and  _103
REMARK   44  A    between atoms: _105  and  _107
REMARK   45  A    between atoms: _107  and  _108
REMARK   46  A    between atoms: _107  and  _110
REMARK   47  A    between atoms: _110  and  _111
REMARK   48  A    between atoms: _116  and  _118
REMARK   49  A    between atoms: _118  and  _119
REMARK   50  A    between atoms: _122  and  _124
REMARK   51  A    between atoms: _124  and  _125
REMARK   52  A    between atoms: _124  and  _127
REMARK   53  A    between atoms: _127  and  _128
REMARK   54  A    between atoms: _130  and  _132
REMARK   55  A    between atoms: _132  and  _133
REMARK   56  A    between atoms: _136  and  _138
REMARK   57  A    between atoms: _138  and  _139
REMARK   58  A    between atoms: _138  and  _141
REMARK   59  A    between atoms: _141  and  _142
REMARK   60  A    between atoms: _152  and  _154
REMARK   61  A    between atoms: _154  and  _155
REMARK   62  A    between atoms: _154  and  _157
REMARK   63  A    between atoms: _157  and  _158
REMARK   64  A    between atoms: _161  and  _163
REMARK   65  A    between atoms: _163  and  _164
REMARK   66  A    between atoms: _163  and  _166
REMARK   67  A    between atoms: _166  and  _167
REMARK   68  A    between atoms: _172  and  _173
REMARK   69  A    between atoms: _175  and  _177
REMARK   70  A    between atoms: _177  and  _178
REMARK   71  A    between atoms: _177  and  _180
REMARK   72  A    between atoms: _180  and  _181
REMARK   73  A    between atoms: _181  and  _182
REMARK   74  A    between atoms: _182  and  _183
REMARK   75  A    between atoms: _192  and  _194
REMARK   76  A    between atoms: _194  and  _195
REMARK   77  A    between atoms: _194  and  _197
REMARK   78  A    between atoms: _197  and  _198
REMARK   79  A    between atoms: _201  and  _203
REMARK   80  A    between atoms: _203  and  _204
REMARK   81  A    between atoms: _203  and  _206
REMARK   82  A    between atoms: _206  and  _207
REMARK   83  A    between atoms: _207  and  _208
REMARK   84  A    between atoms: _208  and  _209
REMARK   85  A    between atoms: _209  and  _210
REMARK   86  A    between atoms: _214  and  _216
REMARK   87  A    between atoms: _216  and  _217
REMARK   88  A    between atoms: _216  and  _219
REMARK   89  A    between atoms: _219  and  _220
REMARK   90  A    between atoms: _220  and  _221
REMARK   91  A    between atoms: _226  and  _228
REMARK   92  A    between atoms: _228  and  _229
REMARK   93  A    between atoms: _228  and  _231
REMARK   94  A    between atoms: _231  and  _232
REMARK   95  A    between atoms: _232  and  _233
REMARK   96  A    between atoms: _233  and  _234
REMARK   97  A    between atoms: _243  and  _245
REMARK   98  A    between atoms: _245  and  _246
REMARK   99  A    between atoms: _245  and  _248
REMARK  100  A    between atoms: _248  and  _249
REMARK  101  A    between atoms: _252  and  _254
REMARK  102  A    between atoms: _254  and  _255
REMARK  103  A    between atoms: _254  and  _257
REMARK  104  A    between atoms: _257  and  _258
REMARK  105  A    between atoms: _258  and  _259
REMARK  106  A    between atoms: _264  and  _266
REMARK  107  A    between atoms: _266  and  _267
REMARK  108  A    between atoms: _266  and  _269
REMARK  109  A    between atoms: _269  and  _270
REMARK  110  A    between atoms: _273  and  _275
REMARK  111  A    between atoms: _275  and  _276
REMARK  112  A    between atoms: _275  and  _278
REMARK  113  A    between atoms: _278  and  _279
REMARK  114  A    between atoms: _279  and  _280
REMARK  115  A    between atoms: _285  and  _287
REMARK  116  A    between atoms: _287  and  _288
REMARK  117  A    between atoms: _287  and  _290
REMARK  118  A    between atoms: _290  and  _291
REMARK  119  A    between atoms: _294  and  _296
REMARK  120  A    between atoms: _296  and  _297
REMARK  121  A    between atoms: _296  and  _299
REMARK  122  A    between atoms: _299  and  _300
REMARK  123  A    between atoms: _306  and  _308
REMARK  124  A    between atoms: _308  and  _309
REMARK  125  A    between atoms: _308  and  _311
REMARK  126  A    between atoms: _311  and  _312
REMARK  127  A    between atoms: _315  and  _317
REMARK  128  A    between atoms: _317  and  _318
REMARK  129  A    between atoms: _317  and  _320
REMARK  130  A    between atoms: _323  and  _325
REMARK  131  A    between atoms: _325  and  _326
REMARK  132  A    between atoms: _325  and  _328
REMARK  133  A    between atoms: _328  and  _329
REMARK  134  A    between atoms: _334  and  _336
REMARK  135  A    between atoms: _347  and  _350
REMARK  136  A    between atoms: _350  and  _351
REMARK  137  A    between atoms: _351  and  _352
REMARK  138  A    between atoms: _357  and  _360
REMARK  139  A    between atoms: _360  and  _361
REMARK  140  A    between atoms: _371  and  _372
REMARK  141  A    between atoms: _380  and  _382
REMARK  142  A    between atoms: _382  and  _383
REMARK  143  A    between atoms: _382  and  _385
REMARK  144  A    between atoms: _385  and  _386
REMARK  145  A    between atoms: _389  and  _391
REMARK  146  A    between atoms: _391  and  _392
REMARK  147  A    between atoms: _391  and  _394
REMARK  148  A    between atoms: _394  and  _395
REMARK  149  A    between atoms: _400  and  _401
REMARK  150  A    between atoms: _403  and  _405
REMARK  151  A    between atoms: _405  and  _406
REMARK  152  A    between atoms: _405  and  _408
REMARK  153  A    between atoms: _408  and  _409
REMARK  154  A    between atoms: _415  and  _417
REMARK  155  A    between atoms: _417  and  _418
REMARK  156  A    between atoms: _417  and  _420
REMARK  157  A    between atoms: _420  and  _421
REMARK  158  A    between atoms: _426  and  _427
REMARK  159  A    between atoms: _429  and  _431
REMARK  160  A    between atoms: _431  and  _432
REMARK  161  A    between atoms: _431  and  _434
REMARK  162  A    between atoms: _434  and  _435
REMARK  163  A    between atoms: _435  and  _436
REMARK  164  A    between atoms: _436  and  _437
REMARK  165  A    between atoms: _446  and  _448
REMARK  166  A    between atoms: _448  and  _449
REMARK  167  A    between atoms: _448  and  _451
REMARK  168  A    between atoms: _451  and  _452
REMARK  169  A    between atoms: _455  and  _457
REMARK  170  A    between atoms: _457  and  _458
REMARK  171  A    between atoms: _460  and  _462
REMARK  172  A    between atoms: _462  and  _463
REMARK  173  A    between atoms: _462  and  _465
REMARK  174  A    between atoms: _465  and  _466
REMARK  175  A    between atoms: _472  and  _473
REMARK  176  A    between atoms: _478  and  _480
REMARK  177  A    between atoms: _480  and  _481
REMARK  178  A    between atoms: _483  and  _485
REMARK  179  A    between atoms: _485  and  _486
REMARK  180  A    between atoms: _485  and  _488
REMARK  181  A    between atoms: _488  and  _489
REMARK  182  A    between atoms: _495  and  _497
REMARK  183  A    between atoms: _497  and  _498
REMARK  184  A    between atoms: _497  and  _500
REMARK  185  A    between atoms: _500  and  _501
REMARK  186  A    between atoms: _506  and  _508
REMARK  187  A    between atoms: _508  and  _509
REMARK  188  A    between atoms: _508  and  _511
REMARK  189  A    between atoms: _511  and  _512
REMARK  190  A    between atoms: _512  and  _513
REMARK  191  A    between atoms: _513  and  _514
REMARK  192  A    between atoms: _514  and  ZN_788
REMARK  193  A    between atoms: _516  and  _518
REMARK  194  A    between atoms: _518  and  _519
REMARK  195  A    between atoms: _522  and  _524
REMARK  196  A    between atoms: _524  and  _525
REMARK  197  A    between atoms: _527  and  _529
REMARK  198  A    between atoms: _529  and  _530
REMARK  199  A    between atoms: _529  and  _532
REMARK  200  A    between atoms: _532  and  _533
REMARK  201  A    between atoms: _536  and  _538
REMARK  202  A    between atoms: _538  and  _539
REMARK  203  A    between atoms: _538  and  _541
REMARK  204  A    between atoms: _544  and  _546
REMARK  205  A    between atoms: _546  and  _547
REMARK  206  A    between atoms: _546  and  _549
REMARK  207  A    between atoms: _549  and  _550
REMARK  208  A    between atoms: _552  and  _554
REMARK  209  A    between atoms: _554  and  _555
REMARK  210  A    between atoms: _554  and  _557
REMARK  211  A    between atoms: _557  and  _558
REMARK  212  A    between atoms: _561  and  _563
REMARK  213  A    between atoms: _563  and  _564
REMARK  214  A    between atoms: _563  and  _566
REMARK  215  A    between atoms: _566  and  _567
REMARK  216  A    between atoms: _570  and  _572
REMARK  217  A    between atoms: _572  and  _573
REMARK  218  A    between atoms: _572  and  _575
REMARK  219  A    between atoms: _575  and  _576
REMARK  220  A    between atoms: _576  and  _577
REMARK  221  A    between atoms: _577  and  _578
REMARK  222  A    between atoms: _578  and  _579
REMARK  223  A    between atoms: _583  and  _585
REMARK  224  A    between atoms: _585  and  _586
REMARK  225  A    between atoms: _585  and  _588
REMARK  226  A    between atoms: _588  and  _589
REMARK  227  A    between atoms: _595  and  _597
REMARK  228  A    between atoms: _597  and  _598
REMARK  229  A    between atoms: _597  and  _600
REMARK  230  A    between atoms: _600  and  _601
REMARK  231  A    between atoms: _607  and  _609
REMARK  232  A    between atoms: _609  and  _610
REMARK  233  A    between atoms: _613  and  _615
REMARK  234  A    between atoms: _615  and  _616
REMARK  235  A    between atoms: _615  and  _618
REMARK  236  A    between atoms: _618  and  _619
REMARK  237  A    between atoms: _619  and  _620
REMARK  238  A    between atoms: _622  and  _624
REMARK  239  A    between atoms: _624  and  _625
REMARK  240  A    between atoms: _624  and  _627
REMARK  241  A    between atoms: _627  and  _628
REMARK  242  A    between atoms: _628  and  _629
REMARK  243  A    between atoms: _629  and  _630
REMARK  244  A    between atoms: _630  and  _631
REMARK  245  A    between atoms: _635  and  _637
REMARK  246  A    between atoms: _637  and  _638
REMARK  247  A    between atoms: _637  and  _640
REMARK  248  A    between atoms: _640  and  _641
REMARK  249  A    between atoms: _646  and  _647
REMARK  250  A    between atoms: _649  and  _651
REMARK  251  A    between atoms: _651  and  _652
REMARK  252  A    between atoms: _651  and  _654
REMARK  253  A    between atoms: _654  and  _655
REMARK  254  A    between atoms: _660  and  _662
REMARK  255  A    between atoms: _662  and  _663
REMARK  256  A    between atoms: _662  and  _665
REMARK  257  A    between atoms: _665  and  _666
REMARK  258  A    between atoms: _669  and  _671
REMARK  259  A    between atoms: _671  and  _672
REMARK  260  A    between atoms: _675  and  _677
REMARK  261  A    between atoms: _677  and  _678
REMARK  262  A    between atoms: _677  and  _680
REMARK  263  A    between atoms: _680  and  _681
REMARK  264  A    between atoms: _684  and  _686
REMARK  265  A    between atoms: _686  and  _687
REMARK  266  A    between atoms: _686  and  _689
REMARK  267  A    between atoms: _692  and  _694
REMARK  268  A    between atoms: _694  and  _695
REMARK  269  A    between atoms: _694  and  _697
REMARK  270  A    between atoms: _697  and  _698
REMARK  271  A    between atoms: _698  and  _699
REMARK  272  A    between atoms: _702  and  _704
REMARK  273  A    between atoms: _704  and  _705
REMARK  274  A    between atoms: _704  and  _707
REMARK  275  A    between atoms: _707  and  _708
REMARK  276  A    between atoms: _713  and  _714
REMARK  277  A    between atoms: _716  and  _718
REMARK  278  A    between atoms: _718  and  _719
REMARK  279  A    between atoms: _718  and  _721
REMARK  280  A    between atoms: _721  and  _722
REMARK  281  A    between atoms: _722  and  _723
REMARK  282  A    between atoms: _723  and  _724
REMARK  283  A    between atoms: _733  and  _735
REMARK  284  A    between atoms: _735  and  _736
REMARK  285  A    between atoms: _735  and  _738
REMARK  286  A    between atoms: _738  and  _739
REMARK  287  A    between atoms: _744  and  _745
REMARK  288  A    between atoms: _747  and  _749
REMARK  289  A    between atoms: _749  and  _750
REMARK  290  A    between atoms: _749  and  _752
REMARK  291  A    between atoms: _752  and  _753
REMARK  292  A    between atoms: _756  and  _758
REMARK  293  A    between atoms: _758  and  _759
REMARK  294  A    between atoms: _758  and  _761
REMARK  295  A    between atoms: _761  and  _762
REMARK  296  A    between atoms: _764  and  _766
REMARK  297  A    between atoms: _766  and  _767
REMARK  298  A    between atoms: _766  and  _769
REMARK  299  A    between atoms: _769  and  _770
REMARK  300  A    between atoms: _776  and  _778
REMARK  301  A    between atoms: _778  and  _779
REMARK  302  A    between atoms: _778  and  _781
REMARK  303  A    between atoms: _781  and  _782
REMARK  304  A    between atoms: _782  and  _783
REMARK                            x       y       z     vdW  Elec       q    Type
REMARK                         _______ _______ _______ _____ _____    ______ ____
ROOT
ATOM      1  O   HOH     1      25.676  10.280 -38.350  0.00  0.00    +0.000 OA
ENDROOT
TORSDOF 0
REMARK  Name = ../refined-set-2016/4ca8/4ca8_pocket.pdb
REMARK  304 active torsions:
REMARK  status: ('A' for Active; 'I' for Inactive)
REMARK    1  A    between atoms: _1  and  _3
REMARK    2  A    between atoms: _3  and  _4
REMARK    3  A    between atoms: _3  and  _6
REMARK    4  A    between atoms: _6  and  _7
REMARK    5  A    between atoms: _7  and  _8
REMARK    6  A    between atoms: _11  and  _13
REMARK    7  A    between atoms: _13  and  _14
REMARK    8  A    between atoms: _13  and  _16
REMARK    9  A    between atoms: _16  and  _17
REMARK   10  A    between atoms: _17  and  _18
REMARK   11  A    between atoms: _21  and  _23
REMARK   12  A    between atoms: _23  and  _24
REMARK   13  A    between atoms: _23  and  _26
REMARK   14  A    between atoms: _26  and  _27
REMARK   15  A    between atoms: _32  and  _34
REMARK   16  A    between atoms: _34  and  _35
REMARK   17  A    between atoms: _34  and  _37
REMARK   18  A    between atoms: _37  and  _38
REMARK   19  A    between atoms: _48  and  _50
REMARK   20  A    between atoms: _50  and  _51
REMARK   21  A    between atoms: _50  and  _53
REMARK   22  A    between atoms: _53  and  _54
REMARK   23  A    between atoms: _54  and  _55
REMARK   24  A    between atoms: _60  and  _62
REMARK   25  A    between atoms: _62  and  _63
REMARK   26  A    between atoms: _62  and  _65
REMARK   27  A    between atoms: _65  and  _66
REMARK   28  A    between atoms: _66  and  _67
REMARK   29  A    between atoms: _72  and  _74
REMARK   30  A    between atoms: _74  and  _75
REMARK   31  A    between atoms: _74  and  _77
REMARK   32  A    between atoms: _77  and  _78
REMARK   33  A    between atoms: _80  and  _82
REMARK   34  A    between atoms: _82  and  _83
REMARK   35  A    between atoms: _82  and  _85
REMARK   36  A    between atoms: _85  and  _86
REMARK   37  A    between atoms: _86  and  _87
REMARK   38  A    between atoms: _90  and  _92
REMARK   39  A    between atoms: _92  and  _93
REMARK   40  A    between atoms: _92  and  _95
REMARK   41  A    between atoms: _98  and  _100
REMARK   42  A    between atoms: _100  and  _101
REMARK   43  A    between atoms: _100  and  _103
REMARK   44  A    between atoms: _105  and  _107
REMARK   45  A    between atoms: _107  and  _108
REMARK   46  A    between atoms: _107  and  _110
REMARK   47  A    between atoms: _110  and  _111
REMARK   48  A    between atoms: _116  and  _118
REMARK   49  A    between atoms: _118  and  _119
REMARK   50  A    between atoms: _122  and  _124
REMARK   51  A    between atoms: _124  and  _125
REMARK   52  A    between atoms: _124  and  _127
REMARK   53  A    between atoms: _127  and  _128
REMARK   54  A    between atoms: _130  and  _132
REMARK   55  A    between atoms: _132  and  _133
REMARK   56  A    between atoms: _136  and  _138
REMARK   57  A    between atoms: _138  and  _139
REMARK   58  A    between atoms: _138  and  _141
REMARK   59  A    between atoms: _141  and  _142
REMARK   60  A    between atoms: _152  and  _154
REMARK   61  A    between atoms: _154  and  _155
REMARK   62  A    between atoms: _154  and  _157
REMARK   63  A    between atoms: _157  and  _158
REMARK   64  A    between atoms: _161  and  _163
REMARK   65  A    between atoms: _163  and  _164
REMARK   66  A    between atoms: _163  and  _166
REMARK   67  A    between atoms: _166  and  _167
REMARK   68  A    between atoms: _172  and  _173
REMARK   69  A    between atoms: _175  and  _177
REMARK   70  A    between atoms: _177  and  _178
REMARK   71  A    between atoms: _177  and  _180
REMARK   72  A    between atoms: _180  and  _181
REMARK   73  A    between atoms: _181  and  _182
REMARK   74  A    between atoms: _182  and  _183
REMARK   75  A    between atoms: _192  and  _194
REMARK   76  A    between atoms: _194  and  _195
REMARK   77  A    between atoms: _194  and  _197
REMARK   78  A    between atoms: _197  and  _198
REMARK   79  A    between atoms: _201  and  _203
REMARK   80  A    between atoms: _203  and  _204
REMARK   81  A    between atoms: _203  and  _206
REMARK   82  A    between atoms: _206  and  _207
REMARK   83  A    between atoms: _207  and  _208
REMARK   84  A    between atoms: _208  and  _209
REMARK   85  A    between atoms: _209  and  _210
REMARK   86  A    between atoms: _214  and  _216
REMARK   87  A    between atoms: _216  and  _217
REMARK   88  A    between atoms: _216  and  _219
REMARK   89  A    between atoms: _219  and  _220
REMARK   90  A    between atoms: _220  and  _221
REMARK   91  A    between atoms: _226  and  _228
REMARK   92  A    between atoms: _228  and  _229
REMARK   93  A    between atoms: _228  and  _231
REMARK   94  A    between atoms: _231  and  _232
REMARK   95  A    between atoms: _232  and  _233
REMARK   96  A    between atoms: _233  and  _234
REMARK   97  A    between atoms: _243  and  _245
REMARK   98  A    between atoms: _245  and  _246
REMARK   99  A    between atoms: _245  and  _248
REMARK  100  A    between atoms: _248  and  _249
REMARK  101  A    between atoms: _252  and  _254
REMARK  102  A    between atoms: _254  and  _255
REMARK  103  A    between atoms: _254  and  _257
REMARK  104  A    between atoms: _257  and  _258
REMARK  105  A    between atoms: _258  and  _259
REMARK  106  A    between atoms: _264  and  _266
REMARK  107  A    between atoms: _266  and  _267
REMARK  108  A    between atoms: _266  and  _269
REMARK  109  A    between atoms: _269  and  _270
REMARK  110  A    between atoms: _273  and  _275
REMARK  111  A    between atoms: _275  and  _276
REMARK  112  A    between atoms: _275  and  _278
REMARK  113  A    between atoms: _278  and  _279
REMARK  114  A    between atoms: _279  and  _280
REMARK  115  A    between atoms: _285  and  _287
REMARK  116  A    between atoms: _287  and  _288
REMARK  117  A    between atoms: _287  and  _290
REMARK  118  A    between atoms: _290  and  _291
REMARK  119  A    between atoms: _294  and  _296
REMARK  120  A    between atoms: _296  and  _297
REMARK  121  A    between atoms: _296  and  _299
REMARK  122  A    between atoms: _299  and  _300
REMARK  123  A    between atoms: _306  and  _308
REMARK  124  A    between atoms: _308  and  _309
REMARK  125  A    between atoms: _308  and  _311
REMARK  126  A    between atoms: _311  and  _312
REMARK  127  A    between atoms: _315  and  _317
REMARK  128  A    between atoms: _317  and  _318
REMARK  129  A    between atoms: _317  and  _320
REMARK  130  A    between atoms: _323  and  _325
REMARK  131  A    between atoms: _325  and  _326
REMARK  132  A    between atoms: _325  and  _328
REMARK  133  A    between atoms: _328  and  _329
REMARK  134  A    between atoms: _334  and  _336
REMARK  135  A    between atoms: _347  and  _350
REMARK  136  A    between atoms: _350  and  _351
REMARK  137  A    between atoms: _351  and  _352
REMARK  138  A    between atoms: _357  and  _360
REMARK  139  A    between atoms: _360  and  _361
REMARK  140  A    between atoms: _371  and  _372
REMARK  141  A    between atoms: _380  and  _382
REMARK  142  A    between atoms: _382  and  _383
REMARK  143  A    between atoms: _382  and  _385
REMARK  144  A    between atoms: _385  and  _386
REMARK  145  A    between atoms: _389  and  _391
REMARK  146  A    between atoms: _391  and  _392
REMARK  147  A    between atoms: _391  and  _394
REMARK  148  A    between atoms: _394  and  _395
REMARK  149  A    between atoms: _400  and  _401
REMARK  150  A    between atoms: _403  and  _405
REMARK  151  A    between atoms: _405  and  _406
REMARK  152  A    between atoms: _405  and  _408
REMARK  153  A    between atoms: _408  and  _409
REMARK  154  A    between atoms: _415  and  _417
REMARK  155  A    between atoms: _417  and  _418
REMARK  156  A    between atoms: _417  and  _420
REMARK  157  A    between atoms: _420  and  _421
REMARK  158  A    between atoms: _426  and  _427
REMARK  159  A    between atoms: _429  and  _431
REMARK  160  A    between atoms: _431  and  _432
REMARK  161  A    between atoms: _431  and  _434
REMARK  162  A    between atoms: _434  and  _435
REMARK  163  A    between atoms: _435  and  _436
REMARK  164  A    between atoms: _436  and  _437
REMARK  165  A    between atoms: _446  and  _448
REMARK  166  A    between atoms: _448  and  _449
REMARK  167  A    between atoms: _448  and  _451
REMARK  168  A    between atoms: _451  and  _452
REMARK  169  A    between atoms: _455  and  _457
REMARK  170  A    between atoms: _457  and  _458
REMARK  171  A    between atoms: _460  and  _462
REMARK  172  A    between atoms: _462  and  _463
REMARK  173  A    between atoms: _462  and  _465
REMARK  174  A    between atoms: _465  and  _466
REMARK  175  A    between atoms: _472  and  _473
REMARK  176  A    between atoms: _478  and  _480
REMARK  177  A    between atoms: _480  and  _481
REMARK  178  A    between atoms: _483  and  _485
REMARK  179  A    between atoms: _485  and  _486
REMARK  180  A    between atoms: _485  and  _488
REMARK  181  A    between atoms: _488  and  _489
REMARK  182  A    between atoms: _495  and  _497
REMARK  183  A    between atoms: _497  and  _498
REMARK  184  A    between atoms: _497  and  _500
REMARK  185  A    between atoms: _500  and  _501
REMARK  186  A    between atoms: _506  and  _508
REMARK  187  A    between atoms: _508  and  _509
REMARK  188  A    between atoms: _508  and  _511
REMARK  189  A    between atoms: _511  and  _512
REMARK  190  A    between atoms: _512  and  _513
REMARK  191  A    between atoms: _513  and  _514
REMARK  192  A    between atoms: _514  and  ZN_788
REMARK  193  A    between atoms: _516  and  _518
REMARK  194  A    between atoms: _518  and  _519
REMARK  195  A    between atoms: _522  and  _524
REMARK  196  A    between atoms: _524  and  _525
REMARK  197  A    between atoms: _527  and  _529
REMARK  198  A    between atoms: _529  and  _530
REMARK  199  A    between atoms: _529  and  _532
REMARK  200  A    between atoms: _532  and  _533
REMARK  201  A    between atoms: _536  and  _538
REMARK  202  A    between atoms: _538  and  _539
REMARK  203  A    between atoms: _538  and  _541
REMARK  204  A    between atoms: _544  and  _546
REMARK  205  A    between atoms: _546  and  _547
REMARK  206  A    between atoms: _546  and  _549
REMARK  207  A    between atoms: _549  and  _550
REMARK  208  A    between atoms: _552  and  _554
REMARK  209  A    between atoms: _554  and  _555
REMARK  210  A    between atoms: _554  and  _557
REMARK  211  A    between atoms: _557  and  _558
REMARK  212  A    between atoms: _561  and  _563
REMARK  213  A    between atoms: _563  and  _564
REMARK  214  A    between atoms: _563  and  _566
REMARK  215  A    between atoms: _566  and  _567
REMARK  216  A    between atoms: _570  and  _572
REMARK  217  A    between atoms: _572  and  _573
REMARK  218  A    between atoms: _572  and  _575
REMARK  219  A    between atoms: _575  and  _576
REMARK  220  A    between atoms: _576  and  _577
REMARK  221  A    between atoms: _577  and  _578
REMARK  222  A    between atoms: _578  and  _579
REMARK  223  A    between atoms: _583  and  _585
REMARK  224  A    between atoms: _585  and  _586
REMARK  225  A    between atoms: _585  and  _588
REMARK  226  A    between atoms: _588  and  _589
REMARK  227  A    between atoms: _595  and  _597
REMARK  228  A    between atoms: _597  and  _598
REMARK  229  A    between atoms: _597  and  _600
REMARK  230  A    between atoms: _600  and  _601
REMARK  231  A    between atoms: _607  and  _609
REMARK  232  A    between atoms: _609  and  _610
REMARK  233  A    between atoms: _613  and  _615
REMARK  234  A    between atoms: _615  and  _616
REMARK  235  A    between atoms: _615  and  _618
REMARK  236  A    between atoms: _618  and  _619
REMARK  237  A    between atoms: _619  and  _620
REMARK  238  A    between atoms: _622  and  _624
REMARK  239  A    between atoms: _624  and  _625
REMARK  240  A    between atoms: _624  and  _627
REMARK  241  A    between atoms: _627  and  _628
REMARK  242  A    between atoms: _628  and  _629
REMARK  243  A    between atoms: _629  and  _630
REMARK  244  A    between atoms: _630  and  _631
REMARK  245  A    between atoms: _635  and  _637
REMARK  246  A    between atoms: _637  and  _638
REMARK  247  A    between atoms: _637  and  _640
REMARK  248  A    between atoms: _640  and  _641
REMARK  249  A    between atoms: _646  and  _647
REMARK  250  A    between atoms: _649  and  _651
REMARK  251  A    between atoms: _651  and  _652
REMARK  252  A    between atoms: _651  and  _654
REMARK  253  A    between atoms: _654  and  _655
REMARK  254  A    between atoms: _660  and  _662
REMARK  255  A    between atoms: _662  and  _663
REMARK  256  A    between atoms: _662  and  _665
REMARK  257  A    between atoms: _665  and  _666
REMARK  258  A    between atoms: _669  and  _671
REMARK  259  A    between atoms: _671  and  _672
REMARK  260  A    between atoms: _675  and  _677
REMARK  261  A    between atoms: _677  and  _678
REMARK  262  A    between atoms: _677  and  _680
REMARK  263  A    between atoms: _680  and  _681
REMARK  264  A    between atoms: _684  and  _686
REMARK  265  A    between atoms: _686  and  _687
REMARK  266  A    between atoms: _686  and  _689
REMARK  267  A    between atoms: _692  and  _694
REMARK  268  A    between atoms: _694  and  _695
REMARK  269  A    between atoms: _694  and  _697
REMARK  270  A    between atoms: _697  and  _698
REMARK  271  A    between atoms: _698  and  _699
REMARK  272  A    between atoms: _702  and  _704
REMARK  273  A    between atoms: _704  and  _705
REMARK  274  A    between atoms: _704  and  _707
REMARK  275  A    between atoms: _707  and  _708
REMARK  276  A    between atoms: _713  and  _714
REMARK  277  A    between atoms: _716  and  _718
REMARK  278  A    between atoms: _718  and  _719
REMARK  279  A    between atoms: _718  and  _721
REMARK  280  A    between atoms: _721  and  _722
REMARK  281  A    between atoms: _722  and  _723
REMARK  282  A    between atoms: _723  and  _724
REMARK  283  A    between atoms: _733  and  _735
REMARK  284  A    between atoms: _735  and  _736
REMARK  285  A    between atoms: _735  and  _738
REMARK  286  A    between atoms: _738  and  _739
REMARK  287  A    between atoms: _744  and  _745
REMARK  288  A    between atoms: _747  and  _749
REMARK  289  A    between atoms: _749  and  _750
REMARK  290  A    between atoms: _749  and  _752
REMARK  291  A    between atoms: _752  and  _753
REMARK  292  A    between atoms: _756  and  _758
REMARK  293  A    between atoms: _758  and  _759
REMARK  294  A    between atoms: _758  and  _761
REMARK  295  A    between atoms: _761  and  _762
REMARK  296  A    between atoms: _764  and  _766
REMARK  297  A    between atoms: _766  and  _767
REMARK  298  A    between atoms: _766  and  _769
REMARK  299  A    between atoms: _769  and  _770
REMARK  300  A    between atoms: _776  and  _778
REMARK  301  A    between atoms: _778  and  _779
REMARK  302  A    between atoms: _778  and  _781
REMARK  303  A    between atoms: _781  and  _782
REMARK  304  A    between atoms: _782  and  _783
REMARK                            x       y       z     vdW  Elec       q    Type
REMARK                         _______ _______ _______ _____ _____    ______ ____
ROOT
ATOM      1  O   HOH     1      24.061   6.430 -36.820  0.00  0.00    +0.000 OA
ENDROOT
TORSDOF 0
REMARK  Name = ../refined-set-2016/4ca8/4ca8_pocket.pdb
REMARK  304 active torsions:
REMARK  status: ('A' for Active; 'I' for Inactive)
REMARK    1  A    between atoms: _1  and  _3
REMARK    2  A    between atoms: _3  and  _4
REMARK    3  A    between atoms: _3  and  _6
REMARK    4  A    between atoms: _6  and  _7
REMARK    5  A    between atoms: _7  and  _8
REMARK    6  A    between atoms: _11  and  _13
REMARK    7  A    between atoms: _13  and  _14
REMARK    8  A    between atoms: _13  and  _16
REMARK    9  A    between atoms: _16  and  _17
REMARK   10  A    between atoms: _17  and  _18
REMARK   11  A    between atoms: _21  and  _23
REMARK   12  A    between atoms: _23  and  _24
REMARK   13  A    between atoms: _23  and  _26
REMARK   14  A    between atoms: _26  and  _27
REMARK   15  A    between atoms: _32  and  _34
REMARK   16  A    between atoms: _34  and  _35
REMARK   17  A    between atoms: _34  and  _37
REMARK   18  A    between atoms: _37  and  _38
REMARK   19  A    between atoms: _48  and  _50
REMARK   20  A    between atoms: _50  and  _51
REMARK   21  A    between atoms: _50  and  _53
REMARK   22  A    between atoms: _53  and  _54
REMARK   23  A    between atoms: _54  and  _55
REMARK   24  A    between atoms: _60  and  _62
REMARK   25  A    between atoms: _62  and  _63
REMARK   26  A    between atoms: _62  and  _65
REMARK   27  A    between atoms: _65  and  _66
REMARK   28  A    between atoms: _66  and  _67
REMARK   29  A    between atoms: _72  and  _74
REMARK   30  A    between atoms: _74  and  _75
REMARK   31  A    between atoms: _74  and  _77
REMARK   32  A    between atoms: _77  and  _78
REMARK   33  A    between atoms: _80  and  _82
REMARK   34  A    between atoms: _82  and  _83
REMARK   35  A    between atoms: _82  and  _85
REMARK   36  A    between atoms: _85  and  _86
REMARK   37  A    between atoms: _86  and  _87
REMARK   38  A    between atoms: _90  and  _92
REMARK   39  A    between atoms: _92  and  _93
REMARK   40  A    between atoms: _92  and  _95
REMARK   41  A    between atoms: _98  and  _100
REMARK   42  A    between atoms: _100  and  _101
REMARK   43  A    between atoms: _100  and  _103
REMARK   44  A    between atoms: _105  and  _107
REMARK   45  A    between atoms: _107  and  _108
REMARK   46  A    between atoms: _107  and  _110
REMARK   47  A    between atoms: _110  and  _111
REMARK   48  A    between atoms: _116  and  _118
REMARK   49  A    between atoms: _118  and  _119
REMARK   50  A    between atoms: _122  and  _124
REMARK   51  A    between atoms: _124  and  _125
REMARK   52  A    between atoms: _124  and  _127
REMARK   53  A    between atoms: _127  and  _128
REMARK   54  A    between atoms: _130  and  _132
REMARK   55  A    between atoms: _132  and  _133
REMARK   56  A    between atoms: _136  and  _138
REMARK   57  A    between atoms: _138  and  _139
REMARK   58  A    between atoms: _138  and  _141
REMARK   59  A    between atoms: _141  and  _142
REMARK   60  A    between atoms: _152  and  _154
REMARK   61  A    between atoms: _154  and  _155
REMARK   62  A    between atoms: _154  and  _157
REMARK   63  A    between atoms: _157  and  _158
REMARK   64  A    between atoms: _161  and  _163
REMARK   65  A    between atoms: _163  and  _164
REMARK   66  A    between atoms: _163  and  _166
REMARK   67  A    between atoms: _166  and  _167
REMARK   68  A    between atoms: _172  and  _173
REMARK   69  A    between atoms: _175  and  _177
REMARK   70  A    between atoms: _177  and  _178
REMARK   71  A    between atoms: _177  and  _180
REMARK   72  A    between atoms: _180  and  _181
REMARK   73  A    between atoms: _181  and  _182
REMARK   74  A    between atoms: _182  and  _183
REMARK   75  A    between atoms: _192  and  _194
REMARK   76  A    between atoms: _194  and  _195
REMARK   77  A    between atoms: _194  and  _197
REMARK   78  A    between atoms: _197  and  _198
REMARK   79  A    between atoms: _201  and  _203
REMARK   80  A    between atoms: _203  and  _204
REMARK   81  A    between atoms: _203  and  _206
REMARK   82  A    between atoms: _206  and  _207
REMARK   83  A    between atoms: _207  and  _208
REMARK   84  A    between atoms: _208  and  _209
REMARK   85  A    between atoms: _209  and  _210
REMARK   86  A    between atoms: _214  and  _216
REMARK   87  A    between atoms: _216  and  _217
REMARK   88  A    between atoms: _216  and  _219
REMARK   89  A    between atoms: _219  and  _220
REMARK   90  A    between atoms: _220  and  _221
REMARK   91  A    between atoms: _226  and  _228
REMARK   92  A    between atoms: _228  and  _229
REMARK   93  A    between atoms: _228  and  _231
REMARK   94  A    between atoms: _231  and  _232
REMARK   95  A    between atoms: _232  and  _233
REMARK   96  A    between atoms: _233  and  _234
REMARK   97  A    between atoms: _243  and  _245
REMARK   98  A    between atoms: _245  and  _246
REMARK   99  A    between atoms: _245  and  _248
REMARK  100  A    between atoms: _248  and  _249
REMARK  101  A    between atoms: _252  and  _254
REMARK  102  A    between atoms: _254  and  _255
REMARK  103  A    between atoms: _254  and  _257
REMARK  104  A    between atoms: _257  and  _258
REMARK  105  A    between atoms: _258  and  _259
REMARK  106  A    between atoms: _264  and  _266
REMARK  107  A    between atoms: _266  and  _267
REMARK  108  A    between atoms: _266  and  _269
REMARK  109  A    between atoms: _269  and  _270
REMARK  110  A    between atoms: _273  and  _275
REMARK  111  A    between atoms: _275  and  _276
REMARK  112  A    between atoms: _275  and  _278
REMARK  113  A    between atoms: _278  and  _279
REMARK  114  A    between atoms: _279  and  _280
REMARK  115  A    between atoms: _285  and  _287
REMARK  116  A    between atoms: _287  and  _288
REMARK  117  A    between atoms: _287  and  _290
REMARK  118  A    between atoms: _290  and  _291
REMARK  119  A    between atoms: _294  and  _296
REMARK  120  A    between atoms: _296  and  _297
REMARK  121  A    between atoms: _296  and  _299
REMARK  122  A    between atoms: _299  and  _300
REMARK  123  A    between atoms: _306  and  _308
REMARK  124  A    between atoms: _308  and  _309
REMARK  125  A    between atoms: _308  and  _311
REMARK  126  A    between atoms: _311  and  _312
REMARK  127  A    between atoms: _315  and  _317
REMARK  128  A    between atoms: _317  and  _318
REMARK  129  A    between atoms: _317  and  _320
REMARK  130  A    between atoms: _323  and  _325
REMARK  131  A    between atoms: _325  and  _326
REMARK  132  A    between atoms: _325  and  _328
REMARK  133  A    between atoms: _328  and  _329
REMARK  134  A    between atoms: _334  and  _336
REMARK  135  A    between atoms: _347  and  _350
REMARK  136  A    between atoms: _350  and  _351
REMARK  137  A    between atoms: _351  and  _352
REMARK  138  A    between atoms: _357  and  _360
REMARK  139  A    between atoms: _360  and  _361
REMARK  140  A    between atoms: _371  and  _372
REMARK  141  A    between atoms: _380  and  _382
REMARK  142  A    between atoms: _382  and  _383
REMARK  143  A    between atoms: _382  and  _385
REMARK  144  A    between atoms: _385  and  _386
REMARK  145  A    between atoms: _389  and  _391
REMARK  146  A    between atoms: _391  and  _392
REMARK  147  A    between atoms: _391  and  _394
REMARK  148  A    between atoms: _394  and  _395
REMARK  149  A    between atoms: _400  and  _401
REMARK  150  A    between atoms: _403  and  _405
REMARK  151  A    between atoms: _405  and  _406
REMARK  152  A    between atoms: _405  and  _408
REMARK  153  A    between atoms: _408  and  _409
REMARK  154  A    between atoms: _415  and  _417
REMARK  155  A    between atoms: _417  and  _418
REMARK  156  A    between atoms: _417  and  _420
REMARK  157  A    between atoms: _420  and  _421
REMARK  158  A    between atoms: _426  and  _427
REMARK  159  A    between atoms: _429  and  _431
REMARK  160  A    between atoms: _431  and  _432
REMARK  161  A    between atoms: _431  and  _434
REMARK  162  A    between atoms: _434  and  _435
REMARK  163  A    between atoms: _435  and  _436
REMARK  164  A    between atoms: _436  and  _437
REMARK  165  A    between atoms: _446  and  _448
REMARK  166  A    between atoms: _448  and  _449
REMARK  167  A    between atoms: _448  and  _451
REMARK  168  A    between atoms: _451  and  _452
REMARK  169  A    between atoms: _455  and  _457
REMARK  170  A    between atoms: _457  and  _458
REMARK  171  A    between atoms: _460  and  _462
REMARK  172  A    between atoms: _462  and  _463
REMARK  173  A    between atoms: _462  and  _465
REMARK  174  A    between atoms: _465  and  _466
REMARK  175  A    between atoms: _472  and  _473
REMARK  176  A    between atoms: _478  and  _480
REMARK  177  A    between atoms: _480  and  _481
REMARK  178  A    between atoms: _483  and  _485
REMARK  179  A    between atoms: _485  and  _486
REMARK  180  A    between atoms: _485  and  _488
REMARK  181  A    between atoms: _488  and  _489
REMARK  182  A    between atoms: _495  and  _497
REMARK  183  A    between atoms: _497  and  _498
REMARK  184  A    between atoms: _497  and  _500
REMARK  185  A    between atoms: _500  and  _501
REMARK  186  A    between atoms: _506  and  _508
REMARK  187  A    between atoms: _508  and  _509
REMARK  188  A    between atoms: _508  and  _511
REMARK  189  A    between atoms: _511  and  _512
REMARK  190  A    between atoms: _512  and  _513
REMARK  191  A    between atoms: _513  and  _514
REMARK  192  A    between atoms: _514  and  ZN_788
REMARK  193  A    between atoms: _516  and  _518
REMARK  194  A    between atoms: _518  and  _519
REMARK  195  A    between atoms: _522  and  _524
REMARK  196  A    between atoms: _524  and  _525
REMARK  197  A    between atoms: _527  and  _529
REMARK  198  A    between atoms: _529  and  _530
REMARK  199  A    between atoms: _529  and  _532
REMARK  200  A    between atoms: _532  and  _533
REMARK  201  A    between atoms: _536  and  _538
REMARK  202  A    between atoms: _538  and  _539
REMARK  203  A    between atoms: _538  and  _541
REMARK  204  A    between atoms: _544  and  _546
REMARK  205  A    between atoms: _546  and  _547
REMARK  206  A    between atoms: _546  and  _549
REMARK  207  A    between atoms: _549  and  _550
REMARK  208  A    between atoms: _552  and  _554
REMARK  209  A    between atoms: _554  and  _555
REMARK  210  A    between atoms: _554  and  _557
REMARK  211  A    between atoms: _557  and  _558
REMARK  212  A    between atoms: _561  and  _563
REMARK  213  A    between atoms: _563  and  _564
REMARK  214  A    between atoms: _563  and  _566
REMARK  215  A    between atoms: _566  and  _567
REMARK  216  A    between atoms: _570  and  _572
REMARK  217  A    between atoms: _572  and  _573
REMARK  218  A    between atoms: _572  and  _575
REMARK  219  A    between atoms: _575  and  _576
REMARK  220  A    between atoms: _576  and  _577
REMARK  221  A    between atoms: _577  and  _578
REMARK  222  A    between atoms: _578  and  _579
REMARK  223  A    between atoms: _583  and  _585
REMARK  224  A    between atoms: _585  and  _586
REMARK  225  A    between atoms: _585  and  _588
REMARK  226  A    between atoms: _588  and  _589
REMARK  227  A    between atoms: _595  and  _597
REMARK  228  A    between atoms: _597  and  _598
REMARK  229  A    between atoms: _597  and  _600
REMARK  230  A    between atoms: _600  and  _601
REMARK  231  A    between atoms: _607  and  _609
REMARK  232  A    between atoms: _609  and  _610
REMARK  233  A    between atoms: _613  and  _615
REMARK  234  A    between atoms: _615  and  _616
REMARK  235  A    between atoms: _615  and  _618
REMARK  236  A    between atoms: _618  and  _619
REMARK  237  A    between atoms: _619  and  _620
REMARK  238  A    between atoms: _622  and  _624
REMARK  239  A    between atoms: _624  and  _625
REMARK  240  A    between atoms: _624  and  _627
REMARK  241  A    between atoms: _627  and  _628
REMARK  242  A    between atoms: _628  and  _629
REMARK  243  A    between atoms: _629  and  _630
REMARK  244  A    between atoms: _630  and  _631
REMARK  245  A    between atoms: _635  and  _637
REMARK  246  A    between atoms: _637  and  _638
REMARK  247  A    between atoms: _637  and  _640
REMARK  248  A    between atoms: _640  and  _641
REMARK  249  A    between atoms: _646  and  _647
REMARK  250  A    between atoms: _649  and  _651
REMARK  251  A    between atoms: _651  and  _652
REMARK  252  A    between atoms: _651  and  _654
REMARK  253  A    between atoms: _654  and  _655
REMARK  254  A    between atoms: _660  and  _662
REMARK  255  A    between atoms: _662  and  _663
REMARK  256  A    between atoms: _662  and  _665
REMARK  257  A    between atoms: _665  and  _666
REMARK  258  A    between atoms: _669  and  _671
REMARK  259  A    between atoms: _671  and  _672
REMARK  260  A    between atoms: _675  and  _677
REMARK  261  A    between atoms: _677  and  _678
REMARK  262  A    between atoms: _677  and  _680
REMARK  263  A    between atoms: _680  and  _681
REMARK  264  A    between atoms: _684  and  _686
REMARK  265  A    between atoms: _686  and  _687
REMARK  266  A    between atoms: _686  and  _689
REMARK  267  A    between atoms: _692  and  _694
REMARK  268  A    between atoms: _694  and  _695
REMARK  269  A    between atoms: _694  and  _697
REMARK  270  A    between atoms: _697  and  _698
REMARK  271  A    between atoms: _698  and  _699
REMARK  272  A    between atoms: _702  and  _704
REMARK  273  A    between atoms: _704  and  _705
REMARK  274  A    between atoms: _704  and  _707
REMARK  275  A    between atoms: _707  and  _708
REMARK  276  A    between atoms: _713  and  _714
REMARK  277  A    between atoms: _716  and  _718
REMARK  278  A    between atoms: _718  and  _719
REMARK  279  A    between atoms: _718  and  _721
REMARK  280  A    between atoms: _721  and  _722
REMARK  281  A    between atoms: _722  and  _723
REMARK  282  A    between atoms: _723  and  _724
REMARK  283  A    between atoms: _733  and  _735
REMARK  284  A    between atoms: _735  and  _736
REMARK  285  A    between atoms: _735  and  _738
REMARK  286  A    between atoms: _738  and  _739
REMARK  287  A    between atoms: _744  and  _745
REMARK  288  A    between atoms: _747  and  _749
REMARK  289  A    between atoms: _749  and  _750
REMARK  290  A    between atoms: _749  and  _752
REMARK  291  A    between atoms: _752  and  _753
REMARK  292  A    between atoms: _756  and  _758
REMARK  293  A    between atoms: _758  and  _759
REMARK  294  A    between atoms: _758  and  _761
REMARK  295  A    between atoms: _761  and  _762
REMARK  296  A    between atoms: _764  and  _766
REMARK  297  A    between atoms: _766  and  _767
REMARK  298  A    between atoms: _766  and  _769
REMARK  299  A    between atoms: _769  and  _770
REMARK  300  A    between atoms: _776  and  _778
REMARK  301  A    between atoms: _778  and  _779
REMARK  302  A    between atoms: _778  and  _781
REMARK  303  A    between atoms: _781  and  _782
REMARK  304  A    between atoms: _782  and  _783
REMARK                            x       y       z     vdW  Elec       q    Type
REMARK                         _______ _______ _______ _____ _____    ______ ____
ROOT
ATOM      1  O   HOH     1      25.604  10.446 -46.228  0.00  0.00    +0.000 OA
ENDROOT
TORSDOF 0
REMARK  Name = ../refined-set-2016/4ca8/4ca8_pocket.pdb
REMARK  304 active torsions:
REMARK  status: ('A' for Active; 'I' for Inactive)
REMARK    1  A    between atoms: _1  and  _3
REMARK    2  A    between atoms: _3  and  _4
REMARK    3  A    between atoms: _3  and  _6
REMARK    4  A    between atoms: _6  and  _7
REMARK    5  A    between atoms: _7  and  _8
REMARK    6  A    between atoms: _11  and  _13
REMARK    7  A    between atoms: _13  and  _14
REMARK    8  A    between atoms: _13  and  _16
REMARK    9  A    between atoms: _16  and  _17
REMARK   10  A    between atoms: _17  and  _18
REMARK   11  A    between atoms: _21  and  _23
REMARK   12  A    between atoms: _23  and  _24
REMARK   13  A    between atoms: _23  and  _26
REMARK   14  A    between atoms: _26  and  _27
REMARK   15  A    between atoms: _32  and  _34
REMARK   16  A    between atoms: _34  and  _35
REMARK   17  A    between atoms: _34  and  _37
REMARK   18  A    between atoms: _37  and  _38
REMARK   19  A    between atoms: _48  and  _50
REMARK   20  A    between atoms: _50  and  _51
REMARK   21  A    between atoms: _50  and  _53
REMARK   22  A    between atoms: _53  and  _54
REMARK   23  A    between atoms: _54  and  _55
REMARK   24  A    between atoms: _60  and  _62
REMARK   25  A    between atoms: _62  and  _63
REMARK   26  A    between atoms: _62  and  _65
REMARK   27  A    between atoms: _65  and  _66
REMARK   28  A    between atoms: _66  and  _67
REMARK   29  A    between atoms: _72  and  _74
REMARK   30  A    between atoms: _74  and  _75
REMARK   31  A    between atoms: _74  and  _77
REMARK   32  A    between atoms: _77  and  _78
REMARK   33  A    between atoms: _80  and  _82
REMARK   34  A    between atoms: _82  and  _83
REMARK   35  A    between atoms: _82  and  _85
REMARK   36  A    between atoms: _85  and  _86
REMARK   37  A    between atoms: _86  and  _87
REMARK   38  A    between atoms: _90  and  _92
REMARK   39  A    between atoms: _92  and  _93
REMARK   40  A    between atoms: _92  and  _95
REMARK   41  A    between atoms: _98  and  _100
REMARK   42  A    between atoms: _100  and  _101
REMARK   43  A    between atoms: _100  and  _103
REMARK   44  A    between atoms: _105  and  _107
REMARK   45  A    between atoms: _107  and  _108
REMARK   46  A    between atoms: _107  and  _110
REMARK   47  A    between atoms: _110  and  _111
REMARK   48  A    between atoms: _116  and  _118
REMARK   49  A    between atoms: _118  and  _119
REMARK   50  A    between atoms: _122  and  _124
REMARK   51  A    between atoms: _124  and  _125
REMARK   52  A    between atoms: _124  and  _127
REMARK   53  A    between atoms: _127  and  _128
REMARK   54  A    between atoms: _130  and  _132
REMARK   55  A    between atoms: _132  and  _133
REMARK   56  A    between atoms: _136  and  _138
REMARK   57  A    between atoms: _138  and  _139
REMARK   58  A    between atoms: _138  and  _141
REMARK   59  A    between atoms: _141  and  _142
REMARK   60  A    between atoms: _152  and  _154
REMARK   61  A    between atoms: _154  and  _155
REMARK   62  A    between atoms: _154  and  _157
REMARK   63  A    between atoms: _157  and  _158
REMARK   64  A    between atoms: _161  and  _163
REMARK   65  A    between atoms: _163  and  _164
REMARK   66  A    between atoms: _163  and  _166
REMARK   67  A    between atoms: _166  and  _167
REMARK   68  A    between atoms: _172  and  _173
REMARK   69  A    between atoms: _175  and  _177
REMARK   70  A    between atoms: _177  and  _178
REMARK   71  A    between atoms: _177  and  _180
REMARK   72  A    between atoms: _180  and  _181
REMARK   73  A    between atoms: _181  and  _182
REMARK   74  A    between atoms: _182  and  _183
REMARK   75  A    between atoms: _192  and  _194
REMARK   76  A    between atoms: _194  and  _195
REMARK   77  A    between atoms: _194  and  _197
REMARK   78  A    between atoms: _197  and  _198
REMARK   79  A    between atoms: _201  and  _203
REMARK   80  A    between atoms: _203  and  _204
REMARK   81  A    between atoms: _203  and  _206
REMARK   82  A    between atoms: _206  and  _207
REMARK   83  A    between atoms: _207  and  _208
REMARK   84  A    between atoms: _208  and  _209
REMARK   85  A    between atoms: _209  and  _210
REMARK   86  A    between atoms: _214  and  _216
REMARK   87  A    between atoms: _216  and  _217
REMARK   88  A    between atoms: _216  and  _219
REMARK   89  A    between atoms: _219  and  _220
REMARK   90  A    between atoms: _220  and  _221
REMARK   91  A    between atoms: _226  and  _228
REMARK   92  A    between atoms: _228  and  _229
REMARK   93  A    between atoms: _228  and  _231
REMARK   94  A    between atoms: _231  and  _232
REMARK   95  A    between atoms: _232  and  _233
REMARK   96  A    between atoms: _233  and  _234
REMARK   97  A    between atoms: _243  and  _245
REMARK   98  A    between atoms: _245  and  _246
REMARK   99  A    between atoms: _245  and  _248
REMARK  100  A    between atoms: _248  and  _249
REMARK  101  A    between atoms: _252  and  _254
REMARK  102  A    between atoms: _254  and  _255
REMARK  103  A    between atoms: _254  and  _257
REMARK  104  A    between atoms: _257  and  _258
REMARK  105  A    between atoms: _258  and  _259
REMARK  106  A    between atoms: _264  and  _266
REMARK  107  A    between atoms: _266  and  _267
REMARK  108  A    between atoms: _266  and  _269
REMARK  109  A    between atoms: _269  and  _270
REMARK  110  A    between atoms: _273  and  _275
REMARK  111  A    between atoms: _275  and  _276
REMARK  112  A    between atoms: _275  and  _278
REMARK  113  A    between atoms: _278  and  _279
REMARK  114  A    between atoms: _279  and  _280
REMARK  115  A    between atoms: _285  and  _287
REMARK  116  A    between atoms: _287  and  _288
REMARK  117  A    between atoms: _287  and  _290
REMARK  118  A    between atoms: _290  and  _291
REMARK  119  A    between atoms: _294  and  _296
REMARK  120  A    between atoms: _296  and  _297
REMARK  121  A    between atoms: _296  and  _299
REMARK  122  A    between atoms: _299  and  _300
REMARK  123  A    between atoms: _306  and  _308
REMARK  124  A    between atoms: _308  and  _309
REMARK  125  A    between atoms: _308  and  _311
REMARK  126  A    between atoms: _311  and  _312
REMARK  127  A    between atoms: _315  and  _317
REMARK  128  A    between atoms: _317  and  _318
REMARK  129  A    between atoms: _317  and  _320
REMARK  130  A    between atoms: _323  and  _325
REMARK  131  A    between atoms: _325  and  _326
REMARK  132  A    between atoms: _325  and  _328
REMARK  133  A    between atoms: _328  and  _329
REMARK  134  A    between atoms: _334  and  _336
REMARK  135  A    between atoms: _347  and  _350
REMARK  136  A    between atoms: _350  and  _351
REMARK  137  A    between atoms: _351  and  _352
REMARK  138  A    between atoms: _357  and  _360
REMARK  139  A    between atoms: _360  and  _361
REMARK  140  A    between atoms: _371  and  _372
REMARK  141  A    between atoms: _380  and  _382
REMARK  142  A    between atoms: _382  and  _383
REMARK  143  A    between atoms: _382  and  _385
REMARK  144  A    between atoms: _385  and  _386
REMARK  145  A    between atoms: _389  and  _391
REMARK  146  A    between atoms: _391  and  _392
REMARK  147  A    between atoms: _391  and  _394
REMARK  148  A    between atoms: _394  and  _395
REMARK  149  A    between atoms: _400  and  _401
REMARK  150  A    between atoms: _403  and  _405
REMARK  151  A    between atoms: _405  and  _406
REMARK  152  A    between atoms: _405  and  _408
REMARK  153  A    between atoms: _408  and  _409
REMARK  154  A    between atoms: _415  and  _417
REMARK  155  A    between atoms: _417  and  _418
REMARK  156  A    between atoms: _417  and  _420
REMARK  157  A    between atoms: _420  and  _421
REMARK  158  A    between atoms: _426  and  _427
REMARK  159  A    between atoms: _429  and  _431
REMARK  160  A    between atoms: _431  and  _432
REMARK  161  A    between atoms: _431  and  _434
REMARK  162  A    between atoms: _434  and  _435
REMARK  163  A    between atoms: _435  and  _436
REMARK  164  A    between atoms: _436  and  _437
REMARK  165  A    between atoms: _446  and  _448
REMARK  166  A    between atoms: _448  and  _449
REMARK  167  A    between atoms: _448  and  _451
REMARK  168  A    between atoms: _451  and  _452
REMARK  169  A    between atoms: _455  and  _457
REMARK  170  A    between atoms: _457  and  _458
REMARK  171  A    between atoms: _460  and  _462
REMARK  172  A    between atoms: _462  and  _463
REMARK  173  A    between atoms: _462  and  _465
REMARK  174  A    between atoms: _465  and  _466
REMARK  175  A    between atoms: _472  and  _473
REMARK  176  A    between atoms: _478  and  _480
REMARK  177  A    between atoms: _480  and  _481
REMARK  178  A    between atoms: _483  and  _485
REMARK  179  A    between atoms: _485  and  _486
REMARK  180  A    between atoms: _485  and  _488
REMARK  181  A    between atoms: _488  and  _489
REMARK  182  A    between atoms: _495  and  _497
REMARK  183  A    between atoms: _497  and  _498
REMARK  184  A    between atoms: _497  and  _500
REMARK  185  A    between atoms: _500  and  _501
REMARK  186  A    between atoms: _506  and  _508
REMARK  187  A    between atoms: _508  and  _509
REMARK  188  A    between atoms: _508  and  _511
REMARK  189  A    between atoms: _511  and  _512
REMARK  190  A    between atoms: _512  and  _513
REMARK  191  A    between atoms: _513  and  _514
REMARK  192  A    between atoms: _514  and  ZN_788
REMARK  193  A    between atoms: _516  and  _518
REMARK  194  A    between atoms: _518  and  _519
REMARK  195  A    between atoms: _522  and  _524
REMARK  196  A    between atoms: _524  and  _525
REMARK  197  A    between atoms: _527  and  _529
REMARK  198  A    between atoms: _529  and  _530
REMARK  199  A    between atoms: _529  and  _532
REMARK  200  A    between atoms: _532  and  _533
REMARK  201  A    between atoms: _536  and  _538
REMARK  202  A    between atoms: _538  and  _539
REMARK  203  A    between atoms: _538  and  _541
REMARK  204  A    between atoms: _544  and  _546
REMARK  205  A    between atoms: _546  and  _547
REMARK  206  A    between atoms: _546  and  _549
REMARK  207  A    between atoms: _549  and  _550
REMARK  208  A    between atoms: _552  and  _554
REMARK  209  A    between atoms: _554  and  _555
REMARK  210  A    between atoms: _554  and  _557
REMARK  211  A    between atoms: _557  and  _558
REMARK  212  A    between atoms: _561  and  _563
REMARK  213  A    between atoms: _563  and  _564
REMARK  214  A    between atoms: _563  and  _566
REMARK  215  A    between atoms: _566  and  _567
REMARK  216  A    between atoms: _570  and  _572
REMARK  217  A    between atoms: _572  and  _573
REMARK  218  A    between atoms: _572  and  _575
REMARK  219  A    between atoms: _575  and  _576
REMARK  220  A    between atoms: _576  and  _577
REMARK  221  A    between atoms: _577  and  _578
REMARK  222  A    between atoms: _578  and  _579
REMARK  223  A    between atoms: _583  and  _585
REMARK  224  A    between atoms: _585  and  _586
REMARK  225  A    between atoms: _585  and  _588
REMARK  226  A    between atoms: _588  and  _589
REMARK  227  A    between atoms: _595  and  _597
REMARK  228  A    between atoms: _597  and  _598
REMARK  229  A    between atoms: _597  and  _600
REMARK  230  A    between atoms: _600  and  _601
REMARK  231  A    between atoms: _607  and  _609
REMARK  232  A    between atoms: _609  and  _610
REMARK  233  A    between atoms: _613  and  _615
REMARK  234  A    between atoms: _615  and  _616
REMARK  235  A    between atoms: _615  and  _618
REMARK  236  A    between atoms: _618  and  _619
REMARK  237  A    between atoms: _619  and  _620
REMARK  238  A    between atoms: _622  and  _624
REMARK  239  A    between atoms: _624  and  _625
REMARK  240  A    between atoms: _624  and  _627
REMARK  241  A    between atoms: _627  and  _628
REMARK  242  A    between atoms: _628  and  _629
REMARK  243  A    between atoms: _629  and  _630
REMARK  244  A    between atoms: _630  and  _631
REMARK  245  A    between atoms: _635  and  _637
REMARK  246  A    between atoms: _637  and  _638
REMARK  247  A    between atoms: _637  and  _640
REMARK  248  A    between atoms: _640  and  _641
REMARK  249  A    between atoms: _646  and  _647
REMARK  250  A    between atoms: _649  and  _651
REMARK  251  A    between atoms: _651  and  _652
REMARK  252  A    between atoms: _651  and  _654
REMARK  253  A    between atoms: _654  and  _655
REMARK  254  A    between atoms: _660  and  _662
REMARK  255  A    between atoms: _662  and  _663
REMARK  256  A    between atoms: _662  and  _665
REMARK  257  A    between atoms: _665  and  _666
REMARK  258  A    between atoms: _669  and  _671
REMARK  259  A    between atoms: _671  and  _672
REMARK  260  A    between atoms: _675  and  _677
REMARK  261  A    between atoms: _677  and  _678
REMARK  262  A    between atoms: _677  and  _680
REMARK  263  A    between atoms: _680  and  _681
REMARK  264  A    between atoms: _684  and  _686
REMARK  265  A    between atoms: _686  and  _687
REMARK  266  A    between atoms: _686  and  _689
REMARK  267  A    between atoms: _692  and  _694
REMARK  268  A    between atoms: _694  and  _695
REMARK  269  A    between atoms: _694  and  _697
REMARK  270  A    between atoms: _697  and  _698
REMARK  271  A    between atoms: _698  and  _699
REMARK  272  A    between atoms: _702  and  _704
REMARK  273  A    between atoms: _704  and  _705
REMARK  274  A    between atoms: _704  and  _707
REMARK  275  A    between atoms: _707  and  _708
REMARK  276  A    between atoms: _713  and  _714
REMARK  277  A    between atoms: _716  and  _718
REMARK  278  A    between atoms: _718  and  _719
REMARK  279  A    between atoms: _718  and  _721
REMARK  280  A    between atoms: _721  and  _722
REMARK  281  A    between atoms: _722  and  _723
REMARK  282  A    between atoms: _723  and  _724
REMARK  283  A    between atoms: _733  and  _735
REMARK  284  A    between atoms: _735  and  _736
REMARK  285  A    between atoms: _735  and  _738
REMARK  286  A    between atoms: _738  and  _739
REMARK  287  A    between atoms: _744  and  _745
REMARK  288  A    between atoms: _747  and  _749
REMARK  289  A    between atoms: _749  and  _750
REMARK  290  A    between atoms: _749  and  _752
REMARK  291  A    between atoms: _752  and  _753
REMARK  292  A    between atoms: _756  and  _758
REMARK  293  A    between atoms: _758  and  _759
REMARK  294  A    between atoms: _758  and  _761
REMARK  295  A    between atoms: _761  and  _762
REMARK  296  A    between atoms: _764  and  _766
REMARK  297  A    between atoms: _766  and  _767
REMARK  298  A    between atoms: _766  and  _769
REMARK  299  A    between atoms: _769  and  _770
REMARK  300  A    between atoms: _776  and  _778
REMARK  301  A    between atoms: _778  and  _779
REMARK  302  A    between atoms: _778  and  _781
REMARK  303  A    between atoms: _781  and  _782
REMARK  304  A    between atoms: _782  and  _783
REMARK                            x       y       z     vdW  Elec       q    Type
REMARK                         _______ _______ _______ _____ _____    ______ ____
ROOT
ATOM      1  O   HOH     1      23.624   4.564 -50.164  0.00  0.00    +0.000 OA
ENDROOT
TORSDOF 0
REMARK  Name = ../refined-set-2016/4ca8/4ca8_pocket.pdb
REMARK  304 active torsions:
REMARK  status: ('A' for Active; 'I' for Inactive)
REMARK    1  A    between atoms: _1  and  _3
REMARK    2  A    between atoms: _3  and  _4
REMARK    3  A    between atoms: _3  and  _6
REMARK    4  A    between atoms: _6  and  _7
REMARK    5  A    between atoms: _7  and  _8
REMARK    6  A    between atoms: _11  and  _13
REMARK    7  A    between atoms: _13  and  _14
REMARK    8  A    between atoms: _13  and  _16
REMARK    9  A    between atoms: _16  and  _17
REMARK   10  A    between atoms: _17  and  _18
REMARK   11  A    between atoms: _21  and  _23
REMARK   12  A    between atoms: _23  and  _24
REMARK   13  A    between atoms: _23  and  _26
REMARK   14  A    between atoms: _26  and  _27
REMARK   15  A    between atoms: _32  and  _34
REMARK   16  A    between atoms: _34  and  _35
REMARK   17  A    between atoms: _34  and  _37
REMARK   18  A    between atoms: _37  and  _38
REMARK   19  A    between atoms: _48  and  _50
REMARK   20  A    between atoms: _50  and  _51
REMARK   21  A    between atoms: _50  and  _53
REMARK   22  A    between atoms: _53  and  _54
REMARK   23  A    between atoms: _54  and  _55
REMARK   24  A    between atoms: _60  and  _62
REMARK   25  A    between atoms: _62  and  _63
REMARK   26  A    between atoms: _62  and  _65
REMARK   27  A    between atoms: _65  and  _66
REMARK   28  A    between atoms: _66  and  _67
REMARK   29  A    between atoms: _72  and  _74
REMARK   30  A    between atoms: _74  and  _75
REMARK   31  A    between atoms: _74  and  _77
REMARK   32  A    between atoms: _77  and  _78
REMARK   33  A    between atoms: _80  and  _82
REMARK   34  A    between atoms: _82  and  _83
REMARK   35  A    between atoms: _82  and  _85
REMARK   36  A    between atoms: _85  and  _86
REMARK   37  A    between atoms: _86  and  _87
REMARK   38  A    between atoms: _90  and  _92
REMARK   39  A    between atoms: _92  and  _93
REMARK   40  A    between atoms: _92  and  _95
REMARK   41  A    between atoms: _98  and  _100
REMARK   42  A    between atoms: _100  and  _101
REMARK   43  A    between atoms: _100  and  _103
REMARK   44  A    between atoms: _105  and  _107
REMARK   45  A    between atoms: _107  and  _108
REMARK   46  A    between atoms: _107  and  _110
REMARK   47  A    between atoms: _110  and  _111
REMARK   48  A    between atoms: _116  and  _118
REMARK   49  A    between atoms: _118  and  _119
REMARK   50  A    between atoms: _122  and  _124
REMARK   51  A    between atoms: _124  and  _125
REMARK   52  A    between atoms: _124  and  _127
REMARK   53  A    between atoms: _127  and  _128
REMARK   54  A    between atoms: _130  and  _132
REMARK   55  A    between atoms: _132  and  _133
REMARK   56  A    between atoms: _136  and  _138
REMARK   57  A    between atoms: _138  and  _139
REMARK   58  A    between atoms: _138  and  _141
REMARK   59  A    between atoms: _141  and  _142
REMARK   60  A    between atoms: _152  and  _154
REMARK   61  A    between atoms: _154  and  _155
REMARK   62  A    between atoms: _154  and  _157
REMARK   63  A    between atoms: _157  and  _158
REMARK   64  A    between atoms: _161  and  _163
REMARK   65  A    between atoms: _163  and  _164
REMARK   66  A    between atoms: _163  and  _166
REMARK   67  A    between atoms: _166  and  _167
REMARK   68  A    between atoms: _172  and  _173
REMARK   69  A    between atoms: _175  and  _177
REMARK   70  A    between atoms: _177  and  _178
REMARK   71  A    between atoms: _177  and  _180
REMARK   72  A    between atoms: _180  and  _181
REMARK   73  A    between atoms: _181  and  _182
REMARK   74  A    between atoms: _182  and  _183
REMARK   75  A    between atoms: _192  and  _194
REMARK   76  A    between atoms: _194  and  _195
REMARK   77  A    between atoms: _194  and  _197
REMARK   78  A    between atoms: _197  and  _198
REMARK   79  A    between atoms: _201  and  _203
REMARK   80  A    between atoms: _203  and  _204
REMARK   81  A    between atoms: _203  and  _206
REMARK   82  A    between atoms: _206  and  _207
REMARK   83  A    between atoms: _207  and  _208
REMARK   84  A    between atoms: _208  and  _209
REMARK   85  A    between atoms: _209  and  _210
REMARK   86  A    between atoms: _214  and  _216
REMARK   87  A    between atoms: _216  and  _217
REMARK   88  A    between atoms: _216  and  _219
REMARK   89  A    between atoms: _219  and  _220
REMARK   90  A    between atoms: _220  and  _221
REMARK   91  A    between atoms: _226  and  _228
REMARK   92  A    between atoms: _228  and  _229
REMARK   93  A    between atoms: _228  and  _231
REMARK   94  A    between atoms: _231  and  _232
REMARK   95  A    between atoms: _232  and  _233
REMARK   96  A    between atoms: _233  and  _234
REMARK   97  A    between atoms: _243  and  _245
REMARK   98  A    between atoms: _245  and  _246
REMARK   99  A    between atoms: _245  and  _248
REMARK  100  A    between atoms: _248  and  _249
REMARK  101  A    between atoms: _252  and  _254
REMARK  102  A    between atoms: _254  and  _255
REMARK  103  A    between atoms: _254  and  _257
REMARK  104  A    between atoms: _257  and  _258
REMARK  105  A    between atoms: _258  and  _259
REMARK  106  A    between atoms: _264  and  _266
REMARK  107  A    between atoms: _266  and  _267
REMARK  108  A    between atoms: _266  and  _269
REMARK  109  A    between atoms: _269  and  _270
REMARK  110  A    between atoms: _273  and  _275
REMARK  111  A    between atoms: _275  and  _276
REMARK  112  A    between atoms: _275  and  _278
REMARK  113  A    between atoms: _278  and  _279
REMARK  114  A    between atoms: _279  and  _280
REMARK  115  A    between atoms: _285  and  _287
REMARK  116  A    between atoms: _287  and  _288
REMARK  117  A    between atoms: _287  and  _290
REMARK  118  A    between atoms: _290  and  _291
REMARK  119  A    between atoms: _294  and  _296
REMARK  120  A    between atoms: _296  and  _297
REMARK  121  A    between atoms: _296  and  _299
REMARK  122  A    between atoms: _299  and  _300
REMARK  123  A    between atoms: _306  and  _308
REMARK  124  A    between atoms: _308  and  _309
REMARK  125  A    between atoms: _308  and  _311
REMARK  126  A    between atoms: _311  and  _312
REMARK  127  A    between atoms: _315  and  _317
REMARK  128  A    between atoms: _317  and  _318
REMARK  129  A    between atoms: _317  and  _320
REMARK  130  A    between atoms: _323  and  _325
REMARK  131  A    between atoms: _325  and  _326
REMARK  132  A    between atoms: _325  and  _328
REMARK  133  A    between atoms: _328  and  _329
REMARK  134  A    between atoms: _334  and  _336
REMARK  135  A    between atoms: _347  and  _350
REMARK  136  A    between atoms: _350  and  _351
REMARK  137  A    between atoms: _351  and  _352
REMARK  138  A    between atoms: _357  and  _360
REMARK  139  A    between atoms: _360  and  _361
REMARK  140  A    between atoms: _371  and  _372
REMARK  141  A    between atoms: _380  and  _382
REMARK  142  A    between atoms: _382  and  _383
REMARK  143  A    between atoms: _382  and  _385
REMARK  144  A    between atoms: _385  and  _386
REMARK  145  A    between atoms: _389  and  _391
REMARK  146  A    between atoms: _391  and  _392
REMARK  147  A    between atoms: _391  and  _394
REMARK  148  A    between atoms: _394  and  _395
REMARK  149  A    between atoms: _400  and  _401
REMARK  150  A    between atoms: _403  and  _405
REMARK  151  A    between atoms: _405  and  _406
REMARK  152  A    between atoms: _405  and  _408
REMARK  153  A    between atoms: _408  and  _409
REMARK  154  A    between atoms: _415  and  _417
REMARK  155  A    between atoms: _417  and  _418
REMARK  156  A    between atoms: _417  and  _420
REMARK  157  A    between atoms: _420  and  _421
REMARK  158  A    between atoms: _426  and  _427
REMARK  159  A    between atoms: _429  and  _431
REMARK  160  A    between atoms: _431  and  _432
REMARK  161  A    between atoms: _431  and  _434
REMARK  162  A    between atoms: _434  and  _435
REMARK  163  A    between atoms: _435  and  _436
REMARK  164  A    between atoms: _436  and  _437
REMARK  165  A    between atoms: _446  and  _448
REMARK  166  A    between atoms: _448  and  _449
REMARK  167  A    between atoms: _448  and  _451
REMARK  168  A    between atoms: _451  and  _452
REMARK  169  A    between atoms: _455  and  _457
REMARK  170  A    between atoms: _457  and  _458
REMARK  171  A    between atoms: _460  and  _462
REMARK  172  A    between atoms: _462  and  _463
REMARK  173  A    between atoms: _462  and  _465
REMARK  174  A    between atoms: _465  and  _466
REMARK  175  A    between atoms: _472  and  _473
REMARK  176  A    between atoms: _478  and  _480
REMARK  177  A    between atoms: _480  and  _481
REMARK  178  A    between atoms: _483  and  _485
REMARK  179  A    between atoms: _485  and  _486
REMARK  180  A    between atoms: _485  and  _488
REMARK  181  A    between atoms: _488  and  _489
REMARK  182  A    between atoms: _495  and  _497
REMARK  183  A    between atoms: _497  and  _498
REMARK  184  A    between atoms: _497  and  _500
REMARK  185  A    between atoms: _500  and  _501
REMARK  186  A    between atoms: _506  and  _508
REMARK  187  A    between atoms: _508  and  _509
REMARK  188  A    between atoms: _508  and  _511
REMARK  189  A    between atoms: _511  and  _512
REMARK  190  A    between atoms: _512  and  _513
REMARK  191  A    between atoms: _513  and  _514
REMARK  192  A    between atoms: _514  and  ZN_788
REMARK  193  A    between atoms: _516  and  _518
REMARK  194  A    between atoms: _518  and  _519
REMARK  195  A    between atoms: _522  and  _524
REMARK  196  A    between atoms: _524  and  _525
REMARK  197  A    between atoms: _527  and  _529
REMARK  198  A    between atoms: _529  and  _530
REMARK  199  A    between atoms: _529  and  _532
REMARK  200  A    between atoms: _532  and  _533
REMARK  201  A    between atoms: _536  and  _538
REMARK  202  A    between atoms: _538  and  _539
REMARK  203  A    between atoms: _538  and  _541
REMARK  204  A    between atoms: _544  and  _546
REMARK  205  A    between atoms: _546  and  _547
REMARK  206  A    between atoms: _546  and  _549
REMARK  207  A    between atoms: _549  and  _550
REMARK  208  A    between atoms: _552  and  _554
REMARK  209  A    between atoms: _554  and  _555
REMARK  210  A    between atoms: _554  and  _557
REMARK  211  A    between atoms: _557  and  _558
REMARK  212  A    between atoms: _561  and  _563
REMARK  213  A    between atoms: _563  and  _564
REMARK  214  A    between atoms: _563  and  _566
REMARK  215  A    between atoms: _566  and  _567
REMARK  216  A    between atoms: _570  and  _572
REMARK  217  A    between atoms: _572  and  _573
REMARK  218  A    between atoms: _572  and  _575
REMARK  219  A    between atoms: _575  and  _576
REMARK  220  A    between atoms: _576  and  _577
REMARK  221  A    between atoms: _577  and  _578
REMARK  222  A    between atoms: _578  and  _579
REMARK  223  A    between atoms: _583  and  _585
REMARK  224  A    between atoms: _585  and  _586
REMARK  225  A    between atoms: _585  and  _588
REMARK  226  A    between atoms: _588  and  _589
REMARK  227  A    between atoms: _595  and  _597
REMARK  228  A    between atoms: _597  and  _598
REMARK  229  A    between atoms: _597  and  _600
REMARK  230  A    between atoms: _600  and  _601
REMARK  231  A    between atoms: _607  and  _609
REMARK  232  A    between atoms: _609  and  _610
REMARK  233  A    between atoms: _613  and  _615
REMARK  234  A    between atoms: _615  and  _616
REMARK  235  A    between atoms: _615  and  _618
REMARK  236  A    between atoms: _618  and  _619
REMARK  237  A    between atoms: _619  and  _620
REMARK  238  A    between atoms: _622  and  _624
REMARK  239  A    between atoms: _624  and  _625
REMARK  240  A    between atoms: _624  and  _627
REMARK  241  A    between atoms: _627  and  _628
REMARK  242  A    between atoms: _628  and  _629
REMARK  243  A    between atoms: _629  and  _630
REMARK  244  A    between atoms: _630  and  _631
REMARK  245  A    between atoms: _635  and  _637
REMARK  246  A    between atoms: _637  and  _638
REMARK  247  A    between atoms: _637  and  _640
REMARK  248  A    between atoms: _640  and  _641
REMARK  249  A    between atoms: _646  and  _647
REMARK  250  A    between atoms: _649  and  _651
REMARK  251  A    between atoms: _651  and  _652
REMARK  252  A    between atoms: _651  and  _654
REMARK  253  A    between atoms: _654  and  _655
REMARK  254  A    between atoms: _660  and  _662
REMARK  255  A    between atoms: _662  and  _663
REMARK  256  A    between atoms: _662  and  _665
REMARK  257  A    between atoms: _665  and  _666
REMARK  258  A    between atoms: _669  and  _671
REMARK  259  A    between atoms: _671  and  _672
REMARK  260  A    between atoms: _675  and  _677
REMARK  261  A    between atoms: _677  and  _678
REMARK  262  A    between atoms: _677  and  _680
REMARK  263  A    between atoms: _680  and  _681
REMARK  264  A    between atoms: _684  and  _686
REMARK  265  A    between atoms: _686  and  _687
REMARK  266  A    between atoms: _686  and  _689
REMARK  267  A    between atoms: _692  and  _694
REMARK  268  A    between atoms: _694  and  _695
REMARK  269  A    between atoms: _694  and  _697
REMARK  270  A    between atoms: _697  and  _698
REMARK  271  A    between atoms: _698  and  _699
REMARK  272  A    between atoms: _702  and  _704
REMARK  273  A    between atoms: _704  and  _705
REMARK  274  A    between atoms: _704  and  _707
REMARK  275  A    between atoms: _707  and  _708
REMARK  276  A    between atoms: _713  and  _714
REMARK  277  A    between atoms: _716  and  _718
REMARK  278  A    between atoms: _718  and  _719
REMARK  279  A    between atoms: _718  and  _721
REMARK  280  A    between atoms: _721  and  _722
REMARK  281  A    between atoms: _722  and  _723
REMARK  282  A    between atoms: _723  and  _724
REMARK  283  A    between atoms: _733  and  _735
REMARK  284  A    between atoms: _735  and  _736
REMARK  285  A    between atoms: _735  and  _738
REMARK  286  A    between atoms: _738  and  _739
REMARK  287  A    between atoms: _744  and  _745
REMARK  288  A    between atoms: _747  and  _749
REMARK  289  A    between atoms: _749  and  _750
REMARK  290  A    between atoms: _749  and  _752
REMARK  291  A    between atoms: _752  and  _753
REMARK  292  A    between atoms: _756  and  _758
REMARK  293  A    between atoms: _758  and  _759
REMARK  294  A    between atoms: _758  and  _761
REMARK  295  A    between atoms: _761  and  _762
REMARK  296  A    between atoms: _764  and  _766
REMARK  297  A    between atoms: _766  and  _767
REMARK  298  A    between atoms: _766  and  _769
REMARK  299  A    between atoms: _769  and  _770
REMARK  300  A    between atoms: _776  and  _778
REMARK  301  A    between atoms: _778  and  _779
REMARK  302  A    between atoms: _778  and  _781
REMARK  303  A    between atoms: _781  and  _782
REMARK  304  A    between atoms: _782  and  _783
REMARK                            x       y       z     vdW  Elec       q    Type
REMARK                         _______ _______ _______ _____ _____    ______ ____
ROOT
ATOM      1  O   HOH     1      23.015 -11.513 -53.588  0.00  0.00    +0.000 OA
ENDROOT
TORSDOF 0
REMARK  Name = ../refined-set-2016/4ca8/4ca8_pocket.pdb
REMARK  304 active torsions:
REMARK  status: ('A' for Active; 'I' for Inactive)
REMARK    1  A    between atoms: _1  and  _3
REMARK    2  A    between atoms: _3  and  _4
REMARK    3  A    between atoms: _3  and  _6
REMARK    4  A    between atoms: _6  and  _7
REMARK    5  A    between atoms: _7  and  _8
REMARK    6  A    between atoms: _11  and  _13
REMARK    7  A    between atoms: _13  and  _14
REMARK    8  A    between atoms: _13  and  _16
REMARK    9  A    between atoms: _16  and  _17
REMARK   10  A    between atoms: _17  and  _18
REMARK   11  A    between atoms: _21  and  _23
REMARK   12  A    between atoms: _23  and  _24
REMARK   13  A    between atoms: _23  and  _26
REMARK   14  A    between atoms: _26  and  _27
REMARK   15  A    between atoms: _32  and  _34
REMARK   16  A    between atoms: _34  and  _35
REMARK   17  A    between atoms: _34  and  _37
REMARK   18  A    between atoms: _37  and  _38
REMARK   19  A    between atoms: _48  and  _50
REMARK   20  A    between atoms: _50  and  _51
REMARK   21  A    between atoms: _50  and  _53
REMARK   22  A    between atoms: _53  and  _54
REMARK   23  A    between atoms: _54  and  _55
REMARK   24  A    between atoms: _60  and  _62
REMARK   25  A    between atoms: _62  and  _63
REMARK   26  A    between atoms: _62  and  _65
REMARK   27  A    between atoms: _65  and  _66
REMARK   28  A    between atoms: _66  and  _67
REMARK   29  A    between atoms: _72  and  _74
REMARK   30  A    between atoms: _74  and  _75
REMARK   31  A    between atoms: _74  and  _77
REMARK   32  A    between atoms: _77  and  _78
REMARK   33  A    between atoms: _80  and  _82
REMARK   34  A    between atoms: _82  and  _83
REMARK   35  A    between atoms: _82  and  _85
REMARK   36  A    between atoms: _85  and  _86
REMARK   37  A    between atoms: _86  and  _87
REMARK   38  A    between atoms: _90  and  _92
REMARK   39  A    between atoms: _92  and  _93
REMARK   40  A    between atoms: _92  and  _95
REMARK   41  A    between atoms: _98  and  _100
REMARK   42  A    between atoms: _100  and  _101
REMARK   43  A    between atoms: _100  and  _103
REMARK   44  A    between atoms: _105  and  _107
REMARK   45  A    between atoms: _107  and  _108
REMARK   46  A    between atoms: _107  and  _110
REMARK   47  A    between atoms: _110  and  _111
REMARK   48  A    between atoms: _116  and  _118
REMARK   49  A    between atoms: _118  and  _119
REMARK   50  A    between atoms: _122  and  _124
REMARK   51  A    between atoms: _124  and  _125
REMARK   52  A    between atoms: _124  and  _127
REMARK   53  A    between atoms: _127  and  _128
REMARK   54  A    between atoms: _130  and  _132
REMARK   55  A    between atoms: _132  and  _133
REMARK   56  A    between atoms: _136  and  _138
REMARK   57  A    between atoms: _138  and  _139
REMARK   58  A    between atoms: _138  and  _141
REMARK   59  A    between atoms: _141  and  _142
REMARK   60  A    between atoms: _152  and  _154
REMARK   61  A    between atoms: _154  and  _155
REMARK   62  A    between atoms: _154  and  _157
REMARK   63  A    between atoms: _157  and  _158
REMARK   64  A    between atoms: _161  and  _163
REMARK   65  A    between atoms: _163  and  _164
REMARK   66  A    between atoms: _163  and  _166
REMARK   67  A    between atoms: _166  and  _167
REMARK   68  A    between atoms: _172  and  _173
REMARK   69  A    between atoms: _175  and  _177
REMARK   70  A    between atoms: _177  and  _178
REMARK   71  A    between atoms: _177  and  _180
REMARK   72  A    between atoms: _180  and  _181
REMARK   73  A    between atoms: _181  and  _182
REMARK   74  A    between atoms: _182  and  _183
REMARK   75  A    between atoms: _192  and  _194
REMARK   76  A    between atoms: _194  and  _195
REMARK   77  A    between atoms: _194  and  _197
REMARK   78  A    between atoms: _197  and  _198
REMARK   79  A    between atoms: _201  and  _203
REMARK   80  A    between atoms: _203  and  _204
REMARK   81  A    between atoms: _203  and  _206
REMARK   82  A    between atoms: _206  and  _207
REMARK   83  A    between atoms: _207  and  _208
REMARK   84  A    between atoms: _208  and  _209
REMARK   85  A    between atoms: _209  and  _210
REMARK   86  A    between atoms: _214  and  _216
REMARK   87  A    between atoms: _216  and  _217
REMARK   88  A    between atoms: _216  and  _219
REMARK   89  A    between atoms: _219  and  _220
REMARK   90  A    between atoms: _220  and  _221
REMARK   91  A    between atoms: _226  and  _228
REMARK   92  A    between atoms: _228  and  _229
REMARK   93  A    between atoms: _228  and  _231
REMARK   94  A    between atoms: _231  and  _232
REMARK   95  A    between atoms: _232  and  _233
REMARK   96  A    between atoms: _233  and  _234
REMARK   97  A    between atoms: _243  and  _245
REMARK   98  A    between atoms: _245  and  _246
REMARK   99  A    between atoms: _245  and  _248
REMARK  100  A    between atoms: _248  and  _249
REMARK  101  A    between atoms: _252  and  _254
REMARK  102  A    between atoms: _254  and  _255
REMARK  103  A    between atoms: _254  and  _257
REMARK  104  A    between atoms: _257  and  _258
REMARK  105  A    between atoms: _258  and  _259
REMARK  106  A    between atoms: _264  and  _266
REMARK  107  A    between atoms: _266  and  _267
REMARK  108  A    between atoms: _266  and  _269
REMARK  109  A    between atoms: _269  and  _270
REMARK  110  A    between atoms: _273  and  _275
REMARK  111  A    between atoms: _275  and  _276
REMARK  112  A    between atoms: _275  and  _278
REMARK  113  A    between atoms: _278  and  _279
REMARK  114  A    between atoms: _279  and  _280
REMARK  115  A    between atoms: _285  and  _287
REMARK  116  A    between atoms: _287  and  _288
REMARK  117  A    between atoms: _287  and  _290
REMARK  118  A    between atoms: _290  and  _291
REMARK  119  A    between atoms: _294  and  _296
REMARK  120  A    between atoms: _296  and  _297
REMARK  121  A    between atoms: _296  and  _299
REMARK  122  A    between atoms: _299  and  _300
REMARK  123  A    between atoms: _306  and  _308
REMARK  124  A    between atoms: _308  and  _309
REMARK  125  A    between atoms: _308  and  _311
REMARK  126  A    between atoms: _311  and  _312
REMARK  127  A    between atoms: _315  and  _317
REMARK  128  A    between atoms: _317  and  _318
REMARK  129  A    between atoms: _317  and  _320
REMARK  130  A    between atoms: _323  and  _325
REMARK  131  A    between atoms: _325  and  _326
REMARK  132  A    between atoms: _325  and  _328
REMARK  133  A    between atoms: _328  and  _329
REMARK  134  A    between atoms: _334  and  _336
REMARK  135  A    between atoms: _347  and  _350
REMARK  136  A    between atoms: _350  and  _351
REMARK  137  A    between atoms: _351  and  _352
REMARK  138  A    between atoms: _357  and  _360
REMARK  139  A    between atoms: _360  and  _361
REMARK  140  A    between atoms: _371  and  _372
REMARK  141  A    between atoms: _380  and  _382
REMARK  142  A    between atoms: _382  and  _383
REMARK  143  A    between atoms: _382  and  _385
REMARK  144  A    between atoms: _385  and  _386
REMARK  145  A    between atoms: _389  and  _391
REMARK  146  A    between atoms: _391  and  _392
REMARK  147  A    between atoms: _391  and  _394
REMARK  148  A    between atoms: _394  and  _395
REMARK  149  A    between atoms: _400  and  _401
REMARK  150  A    between atoms: _403  and  _405
REMARK  151  A    between atoms: _405  and  _406
REMARK  152  A    between atoms: _405  and  _408
REMARK  153  A    between atoms: _408  and  _409
REMARK  154  A    between atoms: _415  and  _417
REMARK  155  A    between atoms: _417  and  _418
REMARK  156  A    between atoms: _417  and  _420
REMARK  157  A    between atoms: _420  and  _421
REMARK  158  A    between atoms: _426  and  _427
REMARK  159  A    between atoms: _429  and  _431
REMARK  160  A    between atoms: _431  and  _432
REMARK  161  A    between atoms: _431  and  _434
REMARK  162  A    between atoms: _434  and  _435
REMARK  163  A    between atoms: _435  and  _436
REMARK  164  A    between atoms: _436  and  _437
REMARK  165  A    between atoms: _446  and  _448
REMARK  166  A    between atoms: _448  and  _449
REMARK  167  A    between atoms: _448  and  _451
REMARK  168  A    between atoms: _451  and  _452
REMARK  169  A    between atoms: _455  and  _457
REMARK  170  A    between atoms: _457  and  _458
REMARK  171  A    between atoms: _460  and  _462
REMARK  172  A    between atoms: _462  and  _463
REMARK  173  A    between atoms: _462  and  _465
REMARK  174  A    between atoms: _465  and  _466
REMARK  175  A    between atoms: _472  and  _473
REMARK  176  A    between atoms: _478  and  _480
REMARK  177  A    between atoms: _480  and  _481
REMARK  178  A    between atoms: _483  and  _485
REMARK  179  A    between atoms: _485  and  _486
REMARK  180  A    between atoms: _485  and  _488
REMARK  181  A    between atoms: _488  and  _489
REMARK  182  A    between atoms: _495  and  _497
REMARK  183  A    between atoms: _497  and  _498
REMARK  184  A    between atoms: _497  and  _500
REMARK  185  A    between atoms: _500  and  _501
REMARK  186  A    between atoms: _506  and  _508
REMARK  187  A    between atoms: _508  and  _509
REMARK  188  A    between atoms: _508  and  _511
REMARK  189  A    between atoms: _511  and  _512
REMARK  190  A    between atoms: _512  and  _513
REMARK  191  A    between atoms: _513  and  _514
REMARK  192  A    between atoms: _514  and  ZN_788
REMARK  193  A    between atoms: _516  and  _518
REMARK  194  A    between atoms: _518  and  _519
REMARK  195  A    between atoms: _522  and  _524
REMARK  196  A    between atoms: _524  and  _525
REMARK  197  A    between atoms: _527  and  _529
REMARK  198  A    between atoms: _529  and  _530
REMARK  199  A    between atoms: _529  and  _532
REMARK  200  A    between atoms: _532  and  _533
REMARK  201  A    between atoms: _536  and  _538
REMARK  202  A    between atoms: _538  and  _539
REMARK  203  A    between atoms: _538  and  _541
REMARK  204  A    between atoms: _544  and  _546
REMARK  205  A    between atoms: _546  and  _547
REMARK  206  A    between atoms: _546  and  _549
REMARK  207  A    between atoms: _549  and  _550
REMARK  208  A    between atoms: _552  and  _554
REMARK  209  A    between atoms: _554  and  _555
REMARK  210  A    between atoms: _554  and  _557
REMARK  211  A    between atoms: _557  and  _558
REMARK  212  A    between atoms: _561  and  _563
REMARK  213  A    between atoms: _563  and  _564
REMARK  214  A    between atoms: _563  and  _566
REMARK  215  A    between atoms: _566  and  _567
REMARK  216  A    between atoms: _570  and  _572
REMARK  217  A    between atoms: _572  and  _573
REMARK  218  A    between atoms: _572  and  _575
REMARK  219  A    between atoms: _575  and  _576
REMARK  220  A    between atoms: _576  and  _577
REMARK  221  A    between atoms: _577  and  _578
REMARK  222  A    between atoms: _578  and  _579
REMARK  223  A    between atoms: _583  and  _585
REMARK  224  A    between atoms: _585  and  _586
REMARK  225  A    between atoms: _585  and  _588
REMARK  226  A    between atoms: _588  and  _589
REMARK  227  A    between atoms: _595  and  _597
REMARK  228  A    between atoms: _597  and  _598
REMARK  229  A    between atoms: _597  and  _600
REMARK  230  A    between atoms: _600  and  _601
REMARK  231  A    between atoms: _607  and  _609
REMARK  232  A    between atoms: _609  and  _610
REMARK  233  A    between atoms: _613  and  _615
REMARK  234  A    between atoms: _615  and  _616
REMARK  235  A    between atoms: _615  and  _618
REMARK  236  A    between atoms: _618  and  _619
REMARK  237  A    between atoms: _619  and  _620
REMARK  238  A    between atoms: _622  and  _624
REMARK  239  A    between atoms: _624  and  _625
REMARK  240  A    between atoms: _624  and  _627
REMARK  241  A    between atoms: _627  and  _628
REMARK  242  A    between atoms: _628  and  _629
REMARK  243  A    between atoms: _629  and  _630
REMARK  244  A    between atoms: _630  and  _631
REMARK  245  A    between atoms: _635  and  _637
REMARK  246  A    between atoms: _637  and  _638
REMARK  247  A    between atoms: _637  and  _640
REMARK  248  A    between atoms: _640  and  _641
REMARK  249  A    between atoms: _646  and  _647
REMARK  250  A    between atoms: _649  and  _651
REMARK  251  A    between atoms: _651  and  _652
REMARK  252  A    between atoms: _651  and  _654
REMARK  253  A    between atoms: _654  and  _655
REMARK  254  A    between atoms: _660  and  _662
REMARK  255  A    between atoms: _662  and  _663
REMARK  256  A    between atoms: _662  and  _665
REMARK  257  A    between atoms: _665  and  _666
REMARK  258  A    between atoms: _669  and  _671
REMARK  259  A    between atoms: _671  and  _672
REMARK  260  A    between atoms: _675  and  _677
REMARK  261  A    between atoms: _677  and  _678
REMARK  262  A    between atoms: _677  and  _680
REMARK  263  A    between atoms: _680  and  _681
REMARK  264  A    between atoms: _684  and  _686
REMARK  265  A    between atoms: _686  and  _687
REMARK  266  A    between atoms: _686  and  _689
REMARK  267  A    between atoms: _692  and  _694
REMARK  268  A    between atoms: _694  and  _695
REMARK  269  A    between atoms: _694  and  _697
REMARK  270  A    between atoms: _697  and  _698
REMARK  271  A    between atoms: _698  and  _699
REMARK  272  A    between atoms: _702  and  _704
REMARK  273  A    between atoms: _704  and  _705
REMARK  274  A    between atoms: _704  and  _707
REMARK  275  A    between atoms: _707  and  _708
REMARK  276  A    between atoms: _713  and  _714
REMARK  277  A    between atoms: _716  and  _718
REMARK  278  A    between atoms: _718  and  _719
REMARK  279  A    between atoms: _718  and  _721
REMARK  280  A    between atoms: _721  and  _722
REMARK  281  A    between atoms: _722  and  _723
REMARK  282  A    between atoms: _723  and  _724
REMARK  283  A    between atoms: _733  and  _735
REMARK  284  A    between atoms: _735  and  _736
REMARK  285  A    between atoms: _735  and  _738
REMARK  286  A    between atoms: _738  and  _739
REMARK  287  A    between atoms: _744  and  _745
REMARK  288  A    between atoms: _747  and  _749
REMARK  289  A    between atoms: _749  and  _750
REMARK  290  A    between atoms: _749  and  _752
REMARK  291  A    between atoms: _752  and  _753
REMARK  292  A    between atoms: _756  and  _758
REMARK  293  A    between atoms: _758  and  _759
REMARK  294  A    between atoms: _758  and  _761
REMARK  295  A    between atoms: _761  and  _762
REMARK  296  A    between atoms: _764  and  _766
REMARK  297  A    between atoms: _766  and  _767
REMARK  298  A    between atoms: _766  and  _769
REMARK  299  A    between atoms: _769  and  _770
REMARK  300  A    between atoms: _776  and  _778
REMARK  301  A    between atoms: _778  and  _779
REMARK  302  A    between atoms: _778  and  _781
REMARK  303  A    between atoms: _781  and  _782
REMARK  304  A    between atoms: _782  and  _783
REMARK                            x       y       z     vdW  Elec       q    Type
REMARK                         _______ _______ _______ _____ _____    ______ ____
ROOT
ATOM      1  O   HOH     1      27.405  -4.092 -53.097  0.00  0.00    +0.000 OA
ENDROOT
TORSDOF 0
REMARK  Name = ../refined-set-2016/4ca8/4ca8_pocket.pdb
REMARK  304 active torsions:
REMARK  status: ('A' for Active; 'I' for Inactive)
REMARK    1  A    between atoms: _1  and  _3
REMARK    2  A    between atoms: _3  and  _4
REMARK    3  A    between atoms: _3  and  _6
REMARK    4  A    between atoms: _6  and  _7
REMARK    5  A    between atoms: _7  and  _8
REMARK    6  A    between atoms: _11  and  _13
REMARK    7  A    between atoms: _13  and  _14
REMARK    8  A    between atoms: _13  and  _16
REMARK    9  A    between atoms: _16  and  _17
REMARK   10  A    between atoms: _17  and  _18
REMARK   11  A    between atoms: _21  and  _23
REMARK   12  A    between atoms: _23  and  _24
REMARK   13  A    between atoms: _23  and  _26
REMARK   14  A    between atoms: _26  and  _27
REMARK   15  A    between atoms: _32  and  _34
REMARK   16  A    between atoms: _34  and  _35
REMARK   17  A    between atoms: _34  and  _37
REMARK   18  A    between atoms: _37  and  _38
REMARK   19  A    between atoms: _48  and  _50
REMARK   20  A    between atoms: _50  and  _51
REMARK   21  A    between atoms: _50  and  _53
REMARK   22  A    between atoms: _53  and  _54
REMARK   23  A    between atoms: _54  and  _55
REMARK   24  A    between atoms: _60  and  _62
REMARK   25  A    between atoms: _62  and  _63
REMARK   26  A    between atoms: _62  and  _65
REMARK   27  A    between atoms: _65  and  _66
REMARK   28  A    between atoms: _66  and  _67
REMARK   29  A    between atoms: _72  and  _74
REMARK   30  A    between atoms: _74  and  _75
REMARK   31  A    between atoms: _74  and  _77
REMARK   32  A    between atoms: _77  and  _78
REMARK   33  A    between atoms: _80  and  _82
REMARK   34  A    between atoms: _82  and  _83
REMARK   35  A    between atoms: _82  and  _85
REMARK   36  A    between atoms: _85  and  _86
REMARK   37  A    between atoms: _86  and  _87
REMARK   38  A    between atoms: _90  and  _92
REMARK   39  A    between atoms: _92  and  _93
REMARK   40  A    between atoms: _92  and  _95
REMARK   41  A    between atoms: _98  and  _100
REMARK   42  A    between atoms: _100  and  _101
REMARK   43  A    between atoms: _100  and  _103
REMARK   44  A    between atoms: _105  and  _107
REMARK   45  A    between atoms: _107  and  _108
REMARK   46  A    between atoms: _107  and  _110
REMARK   47  A    between atoms: _110  and  _111
REMARK   48  A    between atoms: _116  and  _118
REMARK   49  A    between atoms: _118  and  _119
REMARK   50  A    between atoms: _122  and  _124
REMARK   51  A    between atoms: _124  and  _125
REMARK   52  A    between atoms: _124  and  _127
REMARK   53  A    between atoms: _127  and  _128
REMARK   54  A    between atoms: _130  and  _132
REMARK   55  A    between atoms: _132  and  _133
REMARK   56  A    between atoms: _136  and  _138
REMARK   57  A    between atoms: _138  and  _139
REMARK   58  A    between atoms: _138  and  _141
REMARK   59  A    between atoms: _141  and  _142
REMARK   60  A    between atoms: _152  and  _154
REMARK   61  A    between atoms: _154  and  _155
REMARK   62  A    between atoms: _154  and  _157
REMARK   63  A    between atoms: _157  and  _158
REMARK   64  A    between atoms: _161  and  _163
REMARK   65  A    between atoms: _163  and  _164
REMARK   66  A    between atoms: _163  and  _166
REMARK   67  A    between atoms: _166  and  _167
REMARK   68  A    between atoms: _172  and  _173
REMARK   69  A    between atoms: _175  and  _177
REMARK   70  A    between atoms: _177  and  _178
REMARK   71  A    between atoms: _177  and  _180
REMARK   72  A    between atoms: _180  and  _181
REMARK   73  A    between atoms: _181  and  _182
REMARK   74  A    between atoms: _182  and  _183
REMARK   75  A    between atoms: _192  and  _194
REMARK   76  A    between atoms: _194  and  _195
REMARK   77  A    between atoms: _194  and  _197
REMARK   78  A    between atoms: _197  and  _198
REMARK   79  A    between atoms: _201  and  _203
REMARK   80  A    between atoms: _203  and  _204
REMARK   81  A    between atoms: _203  and  _206
REMARK   82  A    between atoms: _206  and  _207
REMARK   83  A    between atoms: _207  and  _208
REMARK   84  A    between atoms: _208  and  _209
REMARK   85  A    between atoms: _209  and  _210
REMARK   86  A    between atoms: _214  and  _216
REMARK   87  A    between atoms: _216  and  _217
REMARK   88  A    between atoms: _216  and  _219
REMARK   89  A    between atoms: _219  and  _220
REMARK   90  A    between atoms: _220  and  _221
REMARK   91  A    between atoms: _226  and  _228
REMARK   92  A    between atoms: _228  and  _229
REMARK   93  A    between atoms: _228  and  _231
REMARK   94  A    between atoms: _231  and  _232
REMARK   95  A    between atoms: _232  and  _233
REMARK   96  A    between atoms: _233  and  _234
REMARK   97  A    between atoms: _243  and  _245
REMARK   98  A    between atoms: _245  and  _246
REMARK   99  A    between atoms: _245  and  _248
REMARK  100  A    between atoms: _248  and  _249
REMARK  101  A    between atoms: _252  and  _254
REMARK  102  A    between atoms: _254  and  _255
REMARK  103  A    between atoms: _254  and  _257
REMARK  104  A    between atoms: _257  and  _258
REMARK  105  A    between atoms: _258  and  _259
REMARK  106  A    between atoms: _264  and  _266
REMARK  107  A    between atoms: _266  and  _267
REMARK  108  A    between atoms: _266  and  _269
REMARK  109  A    between atoms: _269  and  _270
REMARK  110  A    between atoms: _273  and  _275
REMARK  111  A    between atoms: _275  and  _276
REMARK  112  A    between atoms: _275  and  _278
REMARK  113  A    between atoms: _278  and  _279
REMARK  114  A    between atoms: _279  and  _280
REMARK  115  A    between atoms: _285  and  _287
REMARK  116  A    between atoms: _287  and  _288
REMARK  117  A    between atoms: _287  and  _290
REMARK  118  A    between atoms: _290  and  _291
REMARK  119  A    between atoms: _294  and  _296
REMARK  120  A    between atoms: _296  and  _297
REMARK  121  A    between atoms: _296  and  _299
REMARK  122  A    between atoms: _299  and  _300
REMARK  123  A    between atoms: _306  and  _308
REMARK  124  A    between atoms: _308  and  _309
REMARK  125  A    between atoms: _308  and  _311
REMARK  126  A    between atoms: _311  and  _312
REMARK  127  A    between atoms: _315  and  _317
REMARK  128  A    between atoms: _317  and  _318
REMARK  129  A    between atoms: _317  and  _320
REMARK  130  A    between atoms: _323  and  _325
REMARK  131  A    between atoms: _325  and  _326
REMARK  132  A    between atoms: _325  and  _328
REMARK  133  A    between atoms: _328  and  _329
REMARK  134  A    between atoms: _334  and  _336
REMARK  135  A    between atoms: _347  and  _350
REMARK  136  A    between atoms: _350  and  _351
REMARK  137  A    between atoms: _351  and  _352
REMARK  138  A    between atoms: _357  and  _360
REMARK  139  A    between atoms: _360  and  _361
REMARK  140  A    between atoms: _371  and  _372
REMARK  141  A    between atoms: _380  and  _382
REMARK  142  A    between atoms: _382  and  _383
REMARK  143  A    between atoms: _382  and  _385
REMARK  144  A    between atoms: _385  and  _386
REMARK  145  A    between atoms: _389  and  _391
REMARK  146  A    between atoms: _391  and  _392
REMARK  147  A    between atoms: _391  and  _394
REMARK  148  A    between atoms: _394  and  _395
REMARK  149  A    between atoms: _400  and  _401
REMARK  150  A    between atoms: _403  and  _405
REMARK  151  A    between atoms: _405  and  _406
REMARK  152  A    between atoms: _405  and  _408
REMARK  153  A    between atoms: _408  and  _409
REMARK  154  A    between atoms: _415  and  _417
REMARK  155  A    between atoms: _417  and  _418
REMARK  156  A    between atoms: _417  and  _420
REMARK  157  A    between atoms: _420  and  _421
REMARK  158  A    between atoms: _426  and  _427
REMARK  159  A    between atoms: _429  and  _431
REMARK  160  A    between atoms: _431  and  _432
REMARK  161  A    between atoms: _431  and  _434
REMARK  162  A    between atoms: _434  and  _435
REMARK  163  A    between atoms: _435  and  _436
REMARK  164  A    between atoms: _436  and  _437
REMARK  165  A    between atoms: _446  and  _448
REMARK  166  A    between atoms: _448  and  _449
REMARK  167  A    between atoms: _448  and  _451
REMARK  168  A    between atoms: _451  and  _452
REMARK  169  A    between atoms: _455  and  _457
REMARK  170  A    between atoms: _457  and  _458
REMARK  171  A    between atoms: _460  and  _462
REMARK  172  A    between atoms: _462  and  _463
REMARK  173  A    between atoms: _462  and  _465
REMARK  174  A    between atoms: _465  and  _466
REMARK  175  A    between atoms: _472  and  _473
REMARK  176  A    between atoms: _478  and  _480
REMARK  177  A    between atoms: _480  and  _481
REMARK  178  A    between atoms: _483  and  _485
REMARK  179  A    between atoms: _485  and  _486
REMARK  180  A    between atoms: _485  and  _488
REMARK  181  A    between atoms: _488  and  _489
REMARK  182  A    between atoms: _495  and  _497
REMARK  183  A    between atoms: _497  and  _498
REMARK  184  A    between atoms: _497  and  _500
REMARK  185  A    between atoms: _500  and  _501
REMARK  186  A    between atoms: _506  and  _508
REMARK  187  A    between atoms: _508  and  _509
REMARK  188  A    between atoms: _508  and  _511
REMARK  189  A    between atoms: _511  and  _512
REMARK  190  A    between atoms: _512  and  _513
REMARK  191  A    between atoms: _513  and  _514
REMARK  192  A    between atoms: _514  and  ZN_788
REMARK  193  A    between atoms: _516  and  _518
REMARK  194  A    between atoms: _518  and  _519
REMARK  195  A    between atoms: _522  and  _524
REMARK  196  A    between atoms: _524  and  _525
REMARK  197  A    between atoms: _527  and  _529
REMARK  198  A    between atoms: _529  and  _530
REMARK  199  A    between atoms: _529  and  _532
REMARK  200  A    between atoms: _532  and  _533
REMARK  201  A    between atoms: _536  and  _538
REMARK  202  A    between atoms: _538  and  _539
REMARK  203  A    between atoms: _538  and  _541
REMARK  204  A    between atoms: _544  and  _546
REMARK  205  A    between atoms: _546  and  _547
REMARK  206  A    between atoms: _546  and  _549
REMARK  207  A    between atoms: _549  and  _550
REMARK  208  A    between atoms: _552  and  _554
REMARK  209  A    between atoms: _554  and  _555
REMARK  210  A    between atoms: _554  and  _557
REMARK  211  A    between atoms: _557  and  _558
REMARK  212  A    between atoms: _561  and  _563
REMARK  213  A    between atoms: _563  and  _564
REMARK  214  A    between atoms: _563  and  _566
REMARK  215  A    between atoms: _566  and  _567
REMARK  216  A    between atoms: _570  and  _572
REMARK  217  A    between atoms: _572  and  _573
REMARK  218  A    between atoms: _572  and  _575
REMARK  219  A    between atoms: _575  and  _576
REMARK  220  A    between atoms: _576  and  _577
REMARK  221  A    between atoms: _577  and  _578
REMARK  222  A    between atoms: _578  and  _579
REMARK  223  A    between atoms: _583  and  _585
REMARK  224  A    between atoms: _585  and  _586
REMARK  225  A    between atoms: _585  and  _588
REMARK  226  A    between atoms: _588  and  _589
REMARK  227  A    between atoms: _595  and  _597
REMARK  228  A    between atoms: _597  and  _598
REMARK  229  A    between atoms: _597  and  _600
REMARK  230  A    between atoms: _600  and  _601
REMARK  231  A    between atoms: _607  and  _609
REMARK  232  A    between atoms: _609  and  _610
REMARK  233  A    between atoms: _613  and  _615
REMARK  234  A    between atoms: _615  and  _616
REMARK  235  A    between atoms: _615  and  _618
REMARK  236  A    between atoms: _618  and  _619
REMARK  237  A    between atoms: _619  and  _620
REMARK  238  A    between atoms: _622  and  _624
REMARK  239  A    between atoms: _624  and  _625
REMARK  240  A    between atoms: _624  and  _627
REMARK  241  A    between atoms: _627  and  _628
REMARK  242  A    between atoms: _628  and  _629
REMARK  243  A    between atoms: _629  and  _630
REMARK  244  A    between atoms: _630  and  _631
REMARK  245  A    between atoms: _635  and  _637
REMARK  246  A    between atoms: _637  and  _638
REMARK  247  A    between atoms: _637  and  _640
REMARK  248  A    between atoms: _640  and  _641
REMARK  249  A    between atoms: _646  and  _647
REMARK  250  A    between atoms: _649  and  _651
REMARK  251  A    between atoms: _651  and  _652
REMARK  252  A    between atoms: _651  and  _654
REMARK  253  A    between atoms: _654  and  _655
REMARK  254  A    between atoms: _660  and  _662
REMARK  255  A    between atoms: _662  and  _663
REMARK  256  A    between atoms: _662  and  _665
REMARK  257  A    between atoms: _665  and  _666
REMARK  258  A    between atoms: _669  and  _671
REMARK  259  A    between atoms: _671  and  _672
REMARK  260  A    between atoms: _675  and  _677
REMARK  261  A    between atoms: _677  and  _678
REMARK  262  A    between atoms: _677  and  _680
REMARK  263  A    between atoms: _680  and  _681
REMARK  264  A    between atoms: _684  and  _686
REMARK  265  A    between atoms: _686  and  _687
REMARK  266  A    between atoms: _686  and  _689
REMARK  267  A    between atoms: _692  and  _694
REMARK  268  A    between atoms: _694  and  _695
REMARK  269  A    between atoms: _694  and  _697
REMARK  270  A    between atoms: _697  and  _698
REMARK  271  A    between atoms: _698  and  _699
REMARK  272  A    between atoms: _702  and  _704
REMARK  273  A    between atoms: _704  and  _705
REMARK  274  A    between atoms: _704  and  _707
REMARK  275  A    between atoms: _707  and  _708
REMARK  276  A    between atoms: _713  and  _714
REMARK  277  A    between atoms: _716  and  _718
REMARK  278  A    between atoms: _718  and  _719
REMARK  279  A    between atoms: _718  and  _721
REMARK  280  A    between atoms: _721  and  _722
REMARK  281  A    between atoms: _722  and  _723
REMARK  282  A    between atoms: _723  and  _724
REMARK  283  A    between atoms: _733  and  _735
REMARK  284  A    between atoms: _735  and  _736
REMARK  285  A    between atoms: _735  and  _738
REMARK  286  A    between atoms: _738  and  _739
REMARK  287  A    between atoms: _744  and  _745
REMARK  288  A    between atoms: _747  and  _749
REMARK  289  A    between atoms: _749  and  _750
REMARK  290  A    between atoms: _749  and  _752
REMARK  291  A    between atoms: _752  and  _753
REMARK  292  A    between atoms: _756  and  _758
REMARK  293  A    between atoms: _758  and  _759
REMARK  294  A    between atoms: _758  and  _761
REMARK  295  A    between atoms: _761  and  _762
REMARK  296  A    between atoms: _764  and  _766
REMARK  297  A    between atoms: _766  and  _767
REMARK  298  A    between atoms: _766  and  _769
REMARK  299  A    between atoms: _769  and  _770
REMARK  300  A    between atoms: _776  and  _778
REMARK  301  A    between atoms: _778  and  _779
REMARK  302  A    between atoms: _778  and  _781
REMARK  303  A    between atoms: _781  and  _782
REMARK  304  A    between atoms: _782  and  _783
REMARK                            x       y       z     vdW  Elec       q    Type
REMARK                         _______ _______ _______ _____ _____    ______ ____
ROOT
ATOM      1  O   HOH     1      28.932  -5.272 -55.095  0.00  0.00    +0.000 OA
ENDROOT
TORSDOF 0
REMARK  Name = ../refined-set-2016/4ca8/4ca8_pocket.pdb
REMARK  304 active torsions:
REMARK  status: ('A' for Active; 'I' for Inactive)
REMARK    1  A    between atoms: _1  and  _3
REMARK    2  A    between atoms: _3  and  _4
REMARK    3  A    between atoms: _3  and  _6
REMARK    4  A    between atoms: _6  and  _7
REMARK    5  A    between atoms: _7  and  _8
REMARK    6  A    between atoms: _11  and  _13
REMARK    7  A    between atoms: _13  and  _14
REMARK    8  A    between atoms: _13  and  _16
REMARK    9  A    between atoms: _16  and  _17
REMARK   10  A    between atoms: _17  and  _18
REMARK   11  A    between atoms: _21  and  _23
REMARK   12  A    between atoms: _23  and  _24
REMARK   13  A    between atoms: _23  and  _26
REMARK   14  A    between atoms: _26  and  _27
REMARK   15  A    between atoms: _32  and  _34
REMARK   16  A    between atoms: _34  and  _35
REMARK   17  A    between atoms: _34  and  _37
REMARK   18  A    between atoms: _37  and  _38
REMARK   19  A    between atoms: _48  and  _50
REMARK   20  A    between atoms: _50  and  _51
REMARK   21  A    between atoms: _50  and  _53
REMARK   22  A    between atoms: _53  and  _54
REMARK   23  A    between atoms: _54  and  _55
REMARK   24  A    between atoms: _60  and  _62
REMARK   25  A    between atoms: _62  and  _63
REMARK   26  A    between atoms: _62  and  _65
REMARK   27  A    between atoms: _65  and  _66
REMARK   28  A    between atoms: _66  and  _67
REMARK   29  A    between atoms: _72  and  _74
REMARK   30  A    between atoms: _74  and  _75
REMARK   31  A    between atoms: _74  and  _77
REMARK   32  A    between atoms: _77  and  _78
REMARK   33  A    between atoms: _80  and  _82
REMARK   34  A    between atoms: _82  and  _83
REMARK   35  A    between atoms: _82  and  _85
REMARK   36  A    between atoms: _85  and  _86
REMARK   37  A    between atoms: _86  and  _87
REMARK   38  A    between atoms: _90  and  _92
REMARK   39  A    between atoms: _92  and  _93
REMARK   40  A    between atoms: _92  and  _95
REMARK   41  A    between atoms: _98  and  _100
REMARK   42  A    between atoms: _100  and  _101
REMARK   43  A    between atoms: _100  and  _103
REMARK   44  A    between atoms: _105  and  _107
REMARK   45  A    between atoms: _107  and  _108
REMARK   46  A    between atoms: _107  and  _110
REMARK   47  A    between atoms: _110  and  _111
REMARK   48  A    between atoms: _116  and  _118
REMARK   49  A    between atoms: _118  and  _119
REMARK   50  A    between atoms: _122  and  _124
REMARK   51  A    between atoms: _124  and  _125
REMARK   52  A    between atoms: _124  and  _127
REMARK   53  A    between atoms: _127  and  _128
REMARK   54  A    between atoms: _130  and  _132
REMARK   55  A    between atoms: _132  and  _133
REMARK   56  A    between atoms: _136  and  _138
REMARK   57  A    between atoms: _138  and  _139
REMARK   58  A    between atoms: _138  and  _141
REMARK   59  A    between atoms: _141  and  _142
REMARK   60  A    between atoms: _152  and  _154
REMARK   61  A    between atoms: _154  and  _155
REMARK   62  A    between atoms: _154  and  _157
REMARK   63  A    between atoms: _157  and  _158
REMARK   64  A    between atoms: _161  and  _163
REMARK   65  A    between atoms: _163  and  _164
REMARK   66  A    between atoms: _163  and  _166
REMARK   67  A    between atoms: _166  and  _167
REMARK   68  A    between atoms: _172  and  _173
REMARK   69  A    between atoms: _175  and  _177
REMARK   70  A    between atoms: _177  and  _178
REMARK   71  A    between atoms: _177  and  _180
REMARK   72  A    between atoms: _180  and  _181
REMARK   73  A    between atoms: _181  and  _182
REMARK   74  A    between atoms: _182  and  _183
REMARK   75  A    between atoms: _192  and  _194
REMARK   76  A    between atoms: _194  and  _195
REMARK   77  A    between atoms: _194  and  _197
REMARK   78  A    between atoms: _197  and  _198
REMARK   79  A    between atoms: _201  and  _203
REMARK   80  A    between atoms: _203  and  _204
REMARK   81  A    between atoms: _203  and  _206
REMARK   82  A    between atoms: _206  and  _207
REMARK   83  A    between atoms: _207  and  _208
REMARK   84  A    between atoms: _208  and  _209
REMARK   85  A    between atoms: _209  and  _210
REMARK   86  A    between atoms: _214  and  _216
REMARK   87  A    between atoms: _216  and  _217
REMARK   88  A    between atoms: _216  and  _219
REMARK   89  A    between atoms: _219  and  _220
REMARK   90  A    between atoms: _220  and  _221
REMARK   91  A    between atoms: _226  and  _228
REMARK   92  A    between atoms: _228  and  _229
REMARK   93  A    between atoms: _228  and  _231
REMARK   94  A    between atoms: _231  and  _232
REMARK   95  A    between atoms: _232  and  _233
REMARK   96  A    between atoms: _233  and  _234
REMARK   97  A    between atoms: _243  and  _245
REMARK   98  A    between atoms: _245  and  _246
REMARK   99  A    between atoms: _245  and  _248
REMARK  100  A    between atoms: _248  and  _249
REMARK  101  A    between atoms: _252  and  _254
REMARK  102  A    between atoms: _254  and  _255
REMARK  103  A    between atoms: _254  and  _257
REMARK  104  A    between atoms: _257  and  _258
REMARK  105  A    between atoms: _258  and  _259
REMARK  106  A    between atoms: _264  and  _266
REMARK  107  A    between atoms: _266  and  _267
REMARK  108  A    between atoms: _266  and  _269
REMARK  109  A    between atoms: _269  and  _270
REMARK  110  A    between atoms: _273  and  _275
REMARK  111  A    between atoms: _275  and  _276
REMARK  112  A    between atoms: _275  and  _278
REMARK  113  A    between atoms: _278  and  _279
REMARK  114  A    between atoms: _279  and  _280
REMARK  115  A    between atoms: _285  and  _287
REMARK  116  A    between atoms: _287  and  _288
REMARK  117  A    between atoms: _287  and  _290
REMARK  118  A    between atoms: _290  and  _291
REMARK  119  A    between atoms: _294  and  _296
REMARK  120  A    between atoms: _296  and  _297
REMARK  121  A    between atoms: _296  and  _299
REMARK  122  A    between atoms: _299  and  _300
REMARK  123  A    between atoms: _306  and  _308
REMARK  124  A    between atoms: _308  and  _309
REMARK  125  A    between atoms: _308  and  _311
REMARK  126  A    between atoms: _311  and  _312
REMARK  127  A    between atoms: _315  and  _317
REMARK  128  A    between atoms: _317  and  _318
REMARK  129  A    between atoms: _317  and  _320
REMARK  130  A    between atoms: _323  and  _325
REMARK  131  A    between atoms: _325  and  _326
REMARK  132  A    between atoms: _325  and  _328
REMARK  133  A    between atoms: _328  and  _329
REMARK  134  A    between atoms: _334  and  _336
REMARK  135  A    between atoms: _347  and  _350
REMARK  136  A    between atoms: _350  and  _351
REMARK  137  A    between atoms: _351  and  _352
REMARK  138  A    between atoms: _357  and  _360
REMARK  139  A    between atoms: _360  and  _361
REMARK  140  A    between atoms: _371  and  _372
REMARK  141  A    between atoms: _380  and  _382
REMARK  142  A    between atoms: _382  and  _383
REMARK  143  A    between atoms: _382  and  _385
REMARK  144  A    between atoms: _385  and  _386
REMARK  145  A    between atoms: _389  and  _391
REMARK  146  A    between atoms: _391  and  _392
REMARK  147  A    between atoms: _391  and  _394
REMARK  148  A    between atoms: _394  and  _395
REMARK  149  A    between atoms: _400  and  _401
REMARK  150  A    between atoms: _403  and  _405
REMARK  151  A    between atoms: _405  and  _406
REMARK  152  A    between atoms: _405  and  _408
REMARK  153  A    between atoms: _408  and  _409
REMARK  154  A    between atoms: _415  and  _417
REMARK  155  A    between atoms: _417  and  _418
REMARK  156  A    between atoms: _417  and  _420
REMARK  157  A    between atoms: _420  and  _421
REMARK  158  A    between atoms: _426  and  _427
REMARK  159  A    between atoms: _429  and  _431
REMARK  160  A    between atoms: _431  and  _432
REMARK  161  A    between atoms: _431  and  _434
REMARK  162  A    between atoms: _434  and  _435
REMARK  163  A    between atoms: _435  and  _436
REMARK  164  A    between atoms: _436  and  _437
REMARK  165  A    between atoms: _446  and  _448
REMARK  166  A    between atoms: _448  and  _449
REMARK  167  A    between atoms: _448  and  _451
REMARK  168  A    between atoms: _451  and  _452
REMARK  169  A    between atoms: _455  and  _457
REMARK  170  A    between atoms: _457  and  _458
REMARK  171  A    between atoms: _460  and  _462
REMARK  172  A    between atoms: _462  and  _463
REMARK  173  A    between atoms: _462  and  _465
REMARK  174  A    between atoms: _465  and  _466
REMARK  175  A    between atoms: _472  and  _473
REMARK  176  A    between atoms: _478  and  _480
REMARK  177  A    between atoms: _480  and  _481
REMARK  178  A    between atoms: _483  and  _485
REMARK  179  A    between atoms: _485  and  _486
REMARK  180  A    between atoms: _485  and  _488
REMARK  181  A    between atoms: _488  and  _489
REMARK  182  A    between atoms: _495  and  _497
REMARK  183  A    between atoms: _497  and  _498
REMARK  184  A    between atoms: _497  and  _500
REMARK  185  A    between atoms: _500  and  _501
REMARK  186  A    between atoms: _506  and  _508
REMARK  187  A    between atoms: _508  and  _509
REMARK  188  A    between atoms: _508  and  _511
REMARK  189  A    between atoms: _511  and  _512
REMARK  190  A    between atoms: _512  and  _513
REMARK  191  A    between atoms: _513  and  _514
REMARK  192  A    between atoms: _514  and  ZN_788
REMARK  193  A    between atoms: _516  and  _518
REMARK  194  A    between atoms: _518  and  _519
REMARK  195  A    between atoms: _522  and  _524
REMARK  196  A    between atoms: _524  and  _525
REMARK  197  A    between atoms: _527  and  _529
REMARK  198  A    between atoms: _529  and  _530
REMARK  199  A    between atoms: _529  and  _532
REMARK  200  A    between atoms: _532  and  _533
REMARK  201  A    between atoms: _536  and  _538
REMARK  202  A    between atoms: _538  and  _539
REMARK  203  A    between atoms: _538  and  _541
REMARK  204  A    between atoms: _544  and  _546
REMARK  205  A    between atoms: _546  and  _547
REMARK  206  A    between atoms: _546  and  _549
REMARK  207  A    between atoms: _549  and  _550
REMARK  208  A    between atoms: _552  and  _554
REMARK  209  A    between atoms: _554  and  _555
REMARK  210  A    between atoms: _554  and  _557
REMARK  211  A    between atoms: _557  and  _558
REMARK  212  A    between atoms: _561  and  _563
REMARK  213  A    between atoms: _563  and  _564
REMARK  214  A    between atoms: _563  and  _566
REMARK  215  A    between atoms: _566  and  _567
REMARK  216  A    between atoms: _570  and  _572
REMARK  217  A    between atoms: _572  and  _573
REMARK  218  A    between atoms: _572  and  _575
REMARK  219  A    between atoms: _575  and  _576
REMARK  220  A    between atoms: _576  and  _577
REMARK  221  A    between atoms: _577  and  _578
REMARK  222  A    between atoms: _578  and  _579
REMARK  223  A    between atoms: _583  and  _585
REMARK  224  A    between atoms: _585  and  _586
REMARK  225  A    between atoms: _585  and  _588
REMARK  226  A    between atoms: _588  and  _589
REMARK  227  A    between atoms: _595  and  _597
REMARK  228  A    between atoms: _597  and  _598
REMARK  229  A    between atoms: _597  and  _600
REMARK  230  A    between atoms: _600  and  _601
REMARK  231  A    between atoms: _607  and  _609
REMARK  232  A    between atoms: _609  and  _610
REMARK  233  A    between atoms: _613  and  _615
REMARK  234  A    between atoms: _615  and  _616
REMARK  235  A    between atoms: _615  and  _618
REMARK  236  A    between atoms: _618  and  _619
REMARK  237  A    between atoms: _619  and  _620
REMARK  238  A    between atoms: _622  and  _624
REMARK  239  A    between atoms: _624  and  _625
REMARK  240  A    between atoms: _624  and  _627
REMARK  241  A    between atoms: _627  and  _628
REMARK  242  A    between atoms: _628  and  _629
REMARK  243  A    between atoms: _629  and  _630
REMARK  244  A    between atoms: _630  and  _631
REMARK  245  A    between atoms: _635  and  _637
REMARK  246  A    between atoms: _637  and  _638
REMARK  247  A    between atoms: _637  and  _640
REMARK  248  A    between atoms: _640  and  _641
REMARK  249  A    between atoms: _646  and  _647
REMARK  250  A    between atoms: _649  and  _651
REMARK  251  A    between atoms: _651  and  _652
REMARK  252  A    between atoms: _651  and  _654
REMARK  253  A    between atoms: _654  and  _655
REMARK  254  A    between atoms: _660  and  _662
REMARK  255  A    between atoms: _662  and  _663
REMARK  256  A    between atoms: _662  and  _665
REMARK  257  A    between atoms: _665  and  _666
REMARK  258  A    between atoms: _669  and  _671
REMARK  259  A    between atoms: _671  and  _672
REMARK  260  A    between atoms: _675  and  _677
REMARK  261  A    between atoms: _677  and  _678
REMARK  262  A    between atoms: _677  and  _680
REMARK  263  A    between atoms: _680  and  _681
REMARK  264  A    between atoms: _684  and  _686
REMARK  265  A    between atoms: _686  and  _687
REMARK  266  A    between atoms: _686  and  _689
REMARK  267  A    between atoms: _692  and  _694
REMARK  268  A    between atoms: _694  and  _695
REMARK  269  A    between atoms: _694  and  _697
REMARK  270  A    between atoms: _697  and  _698
REMARK  271  A    between atoms: _698  and  _699
REMARK  272  A    between atoms: _702  and  _704
REMARK  273  A    between atoms: _704  and  _705
REMARK  274  A    between atoms: _704  and  _707
REMARK  275  A    between atoms: _707  and  _708
REMARK  276  A    between atoms: _713  and  _714
REMARK  277  A    between atoms: _716  and  _718
REMARK  278  A    between atoms: _718  and  _719
REMARK  279  A    between atoms: _718  and  _721
REMARK  280  A    between atoms: _721  and  _722
REMARK  281  A    between atoms: _722  and  _723
REMARK  282  A    between atoms: _723  and  _724
REMARK  283  A    between atoms: _733  and  _735
REMARK  284  A    between atoms: _735  and  _736
REMARK  285  A    between atoms: _735  and  _738
REMARK  286  A    between atoms: _738  and  _739
REMARK  287  A    between atoms: _744  and  _745
REMARK  288  A    between atoms: _747  and  _749
REMARK  289  A    between atoms: _749  and  _750
REMARK  290  A    between atoms: _749  and  _752
REMARK  291  A    between atoms: _752  and  _753
REMARK  292  A    between atoms: _756  and  _758
REMARK  293  A    between atoms: _758  and  _759
REMARK  294  A    between atoms: _758  and  _761
REMARK  295  A    between atoms: _761  and  _762
REMARK  296  A    between atoms: _764  and  _766
REMARK  297  A    between atoms: _766  and  _767
REMARK  298  A    between atoms: _766  and  _769
REMARK  299  A    between atoms: _769  and  _770
REMARK  300  A    between atoms: _776  and  _778
REMARK  301  A    between atoms: _778  and  _779
REMARK  302  A    between atoms: _778  and  _781
REMARK  303  A    between atoms: _781  and  _782
REMARK  304  A    between atoms: _782  and  _783
REMARK                            x       y       z     vdW  Elec       q    Type
REMARK                         _______ _______ _______ _____ _____    ______ ____
ROOT
ATOM      1  O   HOH     1      28.769  -1.633 -50.271  0.00  0.00    +0.000 OA
ENDROOT
TORSDOF 0
REMARK  Name = ../refined-set-2016/4ca8/4ca8_pocket.pdb
REMARK  304 active torsions:
REMARK  status: ('A' for Active; 'I' for Inactive)
REMARK    1  A    between atoms: _1  and  _3
REMARK    2  A    between atoms: _3  and  _4
REMARK    3  A    between atoms: _3  and  _6
REMARK    4  A    between atoms: _6  and  _7
REMARK    5  A    between atoms: _7  and  _8
REMARK    6  A    between atoms: _11  and  _13
REMARK    7  A    between atoms: _13  and  _14
REMARK    8  A    between atoms: _13  and  _16
REMARK    9  A    between atoms: _16  and  _17
REMARK   10  A    between atoms: _17  and  _18
REMARK   11  A    between atoms: _21  and  _23
REMARK   12  A    between atoms: _23  and  _24
REMARK   13  A    between atoms: _23  and  _26
REMARK   14  A    between atoms: _26  and  _27
REMARK   15  A    between atoms: _32  and  _34
REMARK   16  A    between atoms: _34  and  _35
REMARK   17  A    between atoms: _34  and  _37
REMARK   18  A    between atoms: _37  and  _38
REMARK   19  A    between atoms: _48  and  _50
REMARK   20  A    between atoms: _50  and  _51
REMARK   21  A    between atoms: _50  and  _53
REMARK   22  A    between atoms: _53  and  _54
REMARK   23  A    between atoms: _54  and  _55
REMARK   24  A    between atoms: _60  and  _62
REMARK   25  A    between atoms: _62  and  _63
REMARK   26  A    between atoms: _62  and  _65
REMARK   27  A    between atoms: _65  and  _66
REMARK   28  A    between atoms: _66  and  _67
REMARK   29  A    between atoms: _72  and  _74
REMARK   30  A    between atoms: _74  and  _75
REMARK   31  A    between atoms: _74  and  _77
REMARK   32  A    between atoms: _77  and  _78
REMARK   33  A    between atoms: _80  and  _82
REMARK   34  A    between atoms: _82  and  _83
REMARK   35  A    between atoms: _82  and  _85
REMARK   36  A    between atoms: _85  and  _86
REMARK   37  A    between atoms: _86  and  _87
REMARK   38  A    between atoms: _90  and  _92
REMARK   39  A    between atoms: _92  and  _93
REMARK   40  A    between atoms: _92  and  _95
REMARK   41  A    between atoms: _98  and  _100
REMARK   42  A    between atoms: _100  and  _101
REMARK   43  A    between atoms: _100  and  _103
REMARK   44  A    between atoms: _105  and  _107
REMARK   45  A    between atoms: _107  and  _108
REMARK   46  A    between atoms: _107  and  _110
REMARK   47  A    between atoms: _110  and  _111
REMARK   48  A    between atoms: _116  and  _118
REMARK   49  A    between atoms: _118  and  _119
REMARK   50  A    between atoms: _122  and  _124
REMARK   51  A    between atoms: _124  and  _125
REMARK   52  A    between atoms: _124  and  _127
REMARK   53  A    between atoms: _127  and  _128
REMARK   54  A    between atoms: _130  and  _132
REMARK   55  A    between atoms: _132  and  _133
REMARK   56  A    between atoms: _136  and  _138
REMARK   57  A    between atoms: _138  and  _139
REMARK   58  A    between atoms: _138  and  _141
REMARK   59  A    between atoms: _141  and  _142
REMARK   60  A    between atoms: _152  and  _154
REMARK   61  A    between atoms: _154  and  _155
REMARK   62  A    between atoms: _154  and  _157
REMARK   63  A    between atoms: _157  and  _158
REMARK   64  A    between atoms: _161  and  _163
REMARK   65  A    between atoms: _163  and  _164
REMARK   66  A    between atoms: _163  and  _166
REMARK   67  A    between atoms: _166  and  _167
REMARK   68  A    between atoms: _172  and  _173
REMARK   69  A    between atoms: _175  and  _177
REMARK   70  A    between atoms: _177  and  _178
REMARK   71  A    between atoms: _177  and  _180
REMARK   72  A    between atoms: _180  and  _181
REMARK   73  A    between atoms: _181  and  _182
REMARK   74  A    between atoms: _182  and  _183
REMARK   75  A    between atoms: _192  and  _194
REMARK   76  A    between atoms: _194  and  _195
REMARK   77  A    between atoms: _194  and  _197
REMARK   78  A    between atoms: _197  and  _198
REMARK   79  A    between atoms: _201  and  _203
REMARK   80  A    between atoms: _203  and  _204
REMARK   81  A    between atoms: _203  and  _206
REMARK   82  A    between atoms: _206  and  _207
REMARK   83  A    between atoms: _207  and  _208
REMARK   84  A    between atoms: _208  and  _209
REMARK   85  A    between atoms: _209  and  _210
REMARK   86  A    between atoms: _214  and  _216
REMARK   87  A    between atoms: _216  and  _217
REMARK   88  A    between atoms: _216  and  _219
REMARK   89  A    between atoms: _219  and  _220
REMARK   90  A    between atoms: _220  and  _221
REMARK   91  A    between atoms: _226  and  _228
REMARK   92  A    between atoms: _228  and  _229
REMARK   93  A    between atoms: _228  and  _231
REMARK   94  A    between atoms: _231  and  _232
REMARK   95  A    between atoms: _232  and  _233
REMARK   96  A    between atoms: _233  and  _234
REMARK   97  A    between atoms: _243  and  _245
REMARK   98  A    between atoms: _245  and  _246
REMARK   99  A    between atoms: _245  and  _248
REMARK  100  A    between atoms: _248  and  _249
REMARK  101  A    between atoms: _252  and  _254
REMARK  102  A    between atoms: _254  and  _255
REMARK  103  A    between atoms: _254  and  _257
REMARK  104  A    between atoms: _257  and  _258
REMARK  105  A    between atoms: _258  and  _259
REMARK  106  A    between atoms: _264  and  _266
REMARK  107  A    between atoms: _266  and  _267
REMARK  108  A    between atoms: _266  and  _269
REMARK  109  A    between atoms: _269  and  _270
REMARK  110  A    between atoms: _273  and  _275
REMARK  111  A    between atoms: _275  and  _276
REMARK  112  A    between atoms: _275  and  _278
REMARK  113  A    between atoms: _278  and  _279
REMARK  114  A    between atoms: _279  and  _280
REMARK  115  A    between atoms: _285  and  _287
REMARK  116  A    between atoms: _287  and  _288
REMARK  117  A    between atoms: _287  and  _290
REMARK  118  A    between atoms: _290  and  _291
REMARK  119  A    between atoms: _294  and  _296
REMARK  120  A    between atoms: _296  and  _297
REMARK  121  A    between atoms: _296  and  _299
REMARK  122  A    between atoms: _299  and  _300
REMARK  123  A    between atoms: _306  and  _308
REMARK  124  A    between atoms: _308  and  _309
REMARK  125  A    between atoms: _308  and  _311
REMARK  126  A    between atoms: _311  and  _312
REMARK  127  A    between atoms: _315  and  _317
REMARK  128  A    between atoms: _317  and  _318
REMARK  129  A    between atoms: _317  and  _320
REMARK  130  A    between atoms: _323  and  _325
REMARK  131  A    between atoms: _325  and  _326
REMARK  132  A    between atoms: _325  and  _328
REMARK  133  A    between atoms: _328  and  _329
REMARK  134  A    between atoms: _334  and  _336
REMARK  135  A    between atoms: _347  and  _350
REMARK  136  A    between atoms: _350  and  _351
REMARK  137  A    between atoms: _351  and  _352
REMARK  138  A    between atoms: _357  and  _360
REMARK  139  A    between atoms: _360  and  _361
REMARK  140  A    between atoms: _371  and  _372
REMARK  141  A    between atoms: _380  and  _382
REMARK  142  A    between atoms: _382  and  _383
REMARK  143  A    between atoms: _382  and  _385
REMARK  144  A    between atoms: _385  and  _386
REMARK  145  A    between atoms: _389  and  _391
REMARK  146  A    between atoms: _391  and  _392
REMARK  147  A    between atoms: _391  and  _394
REMARK  148  A    between atoms: _394  and  _395
REMARK  149  A    between atoms: _400  and  _401
REMARK  150  A    between atoms: _403  and  _405
REMARK  151  A    between atoms: _405  and  _406
REMARK  152  A    between atoms: _405  and  _408
REMARK  153  A    between atoms: _408  and  _409
REMARK  154  A    between atoms: _415  and  _417
REMARK  155  A    between atoms: _417  and  _418
REMARK  156  A    between atoms: _417  and  _420
REMARK  157  A    between atoms: _420  and  _421
REMARK  158  A    between atoms: _426  and  _427
REMARK  159  A    between atoms: _429  and  _431
REMARK  160  A    between atoms: _431  and  _432
REMARK  161  A    between atoms: _431  and  _434
REMARK  162  A    between atoms: _434  and  _435
REMARK  163  A    between atoms: _435  and  _436
REMARK  164  A    between atoms: _436  and  _437
REMARK  165  A    between atoms: _446  and  _448
REMARK  166  A    between atoms: _448  and  _449
REMARK  167  A    between atoms: _448  and  _451
REMARK  168  A    between atoms: _451  and  _452
REMARK  169  A    between atoms: _455  and  _457
REMARK  170  A    between atoms: _457  and  _458
REMARK  171  A    between atoms: _460  and  _462
REMARK  172  A    between atoms: _462  and  _463
REMARK  173  A    between atoms: _462  and  _465
REMARK  174  A    between atoms: _465  and  _466
REMARK  175  A    between atoms: _472  and  _473
REMARK  176  A    between atoms: _478  and  _480
REMARK  177  A    between atoms: _480  and  _481
REMARK  178  A    between atoms: _483  and  _485
REMARK  179  A    between atoms: _485  and  _486
REMARK  180  A    between atoms: _485  and  _488
REMARK  181  A    between atoms: _488  and  _489
REMARK  182  A    between atoms: _495  and  _497
REMARK  183  A    between atoms: _497  and  _498
REMARK  184  A    between atoms: _497  and  _500
REMARK  185  A    between atoms: _500  and  _501
REMARK  186  A    between atoms: _506  and  _508
REMARK  187  A    between atoms: _508  and  _509
REMARK  188  A    between atoms: _508  and  _511
REMARK  189  A    between atoms: _511  and  _512
REMARK  190  A    between atoms: _512  and  _513
REMARK  191  A    between atoms: _513  and  _514
REMARK  192  A    between atoms: _514  and  ZN_788
REMARK  193  A    between atoms: _516  and  _518
REMARK  194  A    between atoms: _518  and  _519
REMARK  195  A    between atoms: _522  and  _524
REMARK  196  A    between atoms: _524  and  _525
REMARK  197  A    between atoms: _527  and  _529
REMARK  198  A    between atoms: _529  and  _530
REMARK  199  A    between atoms: _529  and  _532
REMARK  200  A    between atoms: _532  and  _533
REMARK  201  A    between atoms: _536  and  _538
REMARK  202  A    between atoms: _538  and  _539
REMARK  203  A    between atoms: _538  and  _541
REMARK  204  A    between atoms: _544  and  _546
REMARK  205  A    between atoms: _546  and  _547
REMARK  206  A    between atoms: _546  and  _549
REMARK  207  A    between atoms: _549  and  _550
REMARK  208  A    between atoms: _552  and  _554
REMARK  209  A    between atoms: _554  and  _555
REMARK  210  A    between atoms: _554  and  _557
REMARK  211  A    between atoms: _557  and  _558
REMARK  212  A    between atoms: _561  and  _563
REMARK  213  A    between atoms: _563  and  _564
REMARK  214  A    between atoms: _563  and  _566
REMARK  215  A    between atoms: _566  and  _567
REMARK  216  A    between atoms: _570  and  _572
REMARK  217  A    between atoms: _572  and  _573
REMARK  218  A    between atoms: _572  and  _575
REMARK  219  A    between atoms: _575  and  _576
REMARK  220  A    between atoms: _576  and  _577
REMARK  221  A    between atoms: _577  and  _578
REMARK  222  A    between atoms: _578  and  _579
REMARK  223  A    between atoms: _583  and  _585
REMARK  224  A    between atoms: _585  and  _586
REMARK  225  A    between atoms: _585  and  _588
REMARK  226  A    between atoms: _588  and  _589
REMARK  227  A    between atoms: _595  and  _597
REMARK  228  A    between atoms: _597  and  _598
REMARK  229  A    between atoms: _597  and  _600
REMARK  230  A    between atoms: _600  and  _601
REMARK  231  A    between atoms: _607  and  _609
REMARK  232  A    between atoms: _609  and  _610
REMARK  233  A    between atoms: _613  and  _615
REMARK  234  A    between atoms: _615  and  _616
REMARK  235  A    between atoms: _615  and  _618
REMARK  236  A    between atoms: _618  and  _619
REMARK  237  A    between atoms: _619  and  _620
REMARK  238  A    between atoms: _622  and  _624
REMARK  239  A    between atoms: _624  and  _625
REMARK  240  A    between atoms: _624  and  _627
REMARK  241  A    between atoms: _627  and  _628
REMARK  242  A    between atoms: _628  and  _629
REMARK  243  A    between atoms: _629  and  _630
REMARK  244  A    between atoms: _630  and  _631
REMARK  245  A    between atoms: _635  and  _637
REMARK  246  A    between atoms: _637  and  _638
REMARK  247  A    between atoms: _637  and  _640
REMARK  248  A    between atoms: _640  and  _641
REMARK  249  A    between atoms: _646  and  _647
REMARK  250  A    between atoms: _649  and  _651
REMARK  251  A    between atoms: _651  and  _652
REMARK  252  A    between atoms: _651  and  _654
REMARK  253  A    between atoms: _654  and  _655
REMARK  254  A    between atoms: _660  and  _662
REMARK  255  A    between atoms: _662  and  _663
REMARK  256  A    between atoms: _662  and  _665
REMARK  257  A    between atoms: _665  and  _666
REMARK  258  A    between atoms: _669  and  _671
REMARK  259  A    between atoms: _671  and  _672
REMARK  260  A    between atoms: _675  and  _677
REMARK  261  A    between atoms: _677  and  _678
REMARK  262  A    between atoms: _677  and  _680
REMARK  263  A    between atoms: _680  and  _681
REMARK  264  A    between atoms: _684  and  _686
REMARK  265  A    between atoms: _686  and  _687
REMARK  266  A    between atoms: _686  and  _689
REMARK  267  A    between atoms: _692  and  _694
REMARK  268  A    between atoms: _694  and  _695
REMARK  269  A    between atoms: _694  and  _697
REMARK  270  A    between atoms: _697  and  _698
REMARK  271  A    between atoms: _698  and  _699
REMARK  272  A    between atoms: _702  and  _704
REMARK  273  A    between atoms: _704  and  _705
REMARK  274  A    between atoms: _704  and  _707
REMARK  275  A    between atoms: _707  and  _708
REMARK  276  A    between atoms: _713  and  _714
REMARK  277  A    between atoms: _716  and  _718
REMARK  278  A    between atoms: _718  and  _719
REMARK  279  A    between atoms: _718  and  _721
REMARK  280  A    between atoms: _721  and  _722
REMARK  281  A    between atoms: _722  and  _723
REMARK  282  A    between atoms: _723  and  _724
REMARK  283  A    between atoms: _733  and  _735
REMARK  284  A    between atoms: _735  and  _736
REMARK  285  A    between atoms: _735  and  _738
REMARK  286  A    between atoms: _738  and  _739
REMARK  287  A    between atoms: _744  and  _745
REMARK  288  A    between atoms: _747  and  _749
REMARK  289  A    between atoms: _749  and  _750
REMARK  290  A    between atoms: _749  and  _752
REMARK  291  A    between atoms: _752  and  _753
REMARK  292  A    between atoms: _756  and  _758
REMARK  293  A    between atoms: _758  and  _759
REMARK  294  A    between atoms: _758  and  _761
REMARK  295  A    between atoms: _761  and  _762
REMARK  296  A    between atoms: _764  and  _766
REMARK  297  A    between atoms: _766  and  _767
REMARK  298  A    between atoms: _766  and  _769
REMARK  299  A    between atoms: _769  and  _770
REMARK  300  A    between atoms: _776  and  _778
REMARK  301  A    between atoms: _778  and  _779
REMARK  302  A    between atoms: _778  and  _781
REMARK  303  A    between atoms: _781  and  _782
REMARK  304  A    between atoms: _782  and  _783
REMARK                            x       y       z     vdW  Elec       q    Type
REMARK                         _______ _______ _______ _____ _____    ______ ____
ROOT
ATOM      1  O   HOH     1      29.354   6.655 -49.043  0.00  0.00    +0.000 OA
ENDROOT
TORSDOF 0
REMARK  Name = ../refined-set-2016/4ca8/4ca8_pocket.pdb
REMARK  304 active torsions:
REMARK  status: ('A' for Active; 'I' for Inactive)
REMARK    1  A    between atoms: _1  and  _3
REMARK    2  A    between atoms: _3  and  _4
REMARK    3  A    between atoms: _3  and  _6
REMARK    4  A    between atoms: _6  and  _7
REMARK    5  A    between atoms: _7  and  _8
REMARK    6  A    between atoms: _11  and  _13
REMARK    7  A    between atoms: _13  and  _14
REMARK    8  A    between atoms: _13  and  _16
REMARK    9  A    between atoms: _16  and  _17
REMARK   10  A    between atoms: _17  and  _18
REMARK   11  A    between atoms: _21  and  _23
REMARK   12  A    between atoms: _23  and  _24
REMARK   13  A    between atoms: _23  and  _26
REMARK   14  A    between atoms: _26  and  _27
REMARK   15  A    between atoms: _32  and  _34
REMARK   16  A    between atoms: _34  and  _35
REMARK   17  A    between atoms: _34  and  _37
REMARK   18  A    between atoms: _37  and  _38
REMARK   19  A    between atoms: _48  and  _50
REMARK   20  A    between atoms: _50  and  _51
REMARK   21  A    between atoms: _50  and  _53
REMARK   22  A    between atoms: _53  and  _54
REMARK   23  A    between atoms: _54  and  _55
REMARK   24  A    between atoms: _60  and  _62
REMARK   25  A    between atoms: _62  and  _63
REMARK   26  A    between atoms: _62  and  _65
REMARK   27  A    between atoms: _65  and  _66
REMARK   28  A    between atoms: _66  and  _67
REMARK   29  A    between atoms: _72  and  _74
REMARK   30  A    between atoms: _74  and  _75
REMARK   31  A    between atoms: _74  and  _77
REMARK   32  A    between atoms: _77  and  _78
REMARK   33  A    between atoms: _80  and  _82
REMARK   34  A    between atoms: _82  and  _83
REMARK   35  A    between atoms: _82  and  _85
REMARK   36  A    between atoms: _85  and  _86
REMARK   37  A    between atoms: _86  and  _87
REMARK   38  A    between atoms: _90  and  _92
REMARK   39  A    between atoms: _92  and  _93
REMARK   40  A    between atoms: _92  and  _95
REMARK   41  A    between atoms: _98  and  _100
REMARK   42  A    between atoms: _100  and  _101
REMARK   43  A    between atoms: _100  and  _103
REMARK   44  A    between atoms: _105  and  _107
REMARK   45  A    between atoms: _107  and  _108
REMARK   46  A    between atoms: _107  and  _110
REMARK   47  A    between atoms: _110  and  _111
REMARK   48  A    between atoms: _116  and  _118
REMARK   49  A    between atoms: _118  and  _119
REMARK   50  A    between atoms: _122  and  _124
REMARK   51  A    between atoms: _124  and  _125
REMARK   52  A    between atoms: _124  and  _127
REMARK   53  A    between atoms: _127  and  _128
REMARK   54  A    between atoms: _130  and  _132
REMARK   55  A    between atoms: _132  and  _133
REMARK   56  A    between atoms: _136  and  _138
REMARK   57  A    between atoms: _138  and  _139
REMARK   58  A    between atoms: _138  and  _141
REMARK   59  A    between atoms: _141  and  _142
REMARK   60  A    between atoms: _152  and  _154
REMARK   61  A    between atoms: _154  and  _155
REMARK   62  A    between atoms: _154  and  _157
REMARK   63  A    between atoms: _157  and  _158
REMARK   64  A    between atoms: _161  and  _163
REMARK   65  A    between atoms: _163  and  _164
REMARK   66  A    between atoms: _163  and  _166
REMARK   67  A    between atoms: _166  and  _167
REMARK   68  A    between atoms: _172  and  _173
REMARK   69  A    between atoms: _175  and  _177
REMARK   70  A    between atoms: _177  and  _178
REMARK   71  A    between atoms: _177  and  _180
REMARK   72  A    between atoms: _180  and  _181
REMARK   73  A    between atoms: _181  and  _182
REMARK   74  A    between atoms: _182  and  _183
REMARK   75  A    between atoms: _192  and  _194
REMARK   76  A    between atoms: _194  and  _195
REMARK   77  A    between atoms: _194  and  _197
REMARK   78  A    between atoms: _197  and  _198
REMARK   79  A    between atoms: _201  and  _203
REMARK   80  A    between atoms: _203  and  _204
REMARK   81  A    between atoms: _203  and  _206
REMARK   82  A    between atoms: _206  and  _207
REMARK   83  A    between atoms: _207  and  _208
REMARK   84  A    between atoms: _208  and  _209
REMARK   85  A    between atoms: _209  and  _210
REMARK   86  A    between atoms: _214  and  _216
REMARK   87  A    between atoms: _216  and  _217
REMARK   88  A    between atoms: _216  and  _219
REMARK   89  A    between atoms: _219  and  _220
REMARK   90  A    between atoms: _220  and  _221
REMARK   91  A    between atoms: _226  and  _228
REMARK   92  A    between atoms: _228  and  _229
REMARK   93  A    between atoms: _228  and  _231
REMARK   94  A    between atoms: _231  and  _232
REMARK   95  A    between atoms: _232  and  _233
REMARK   96  A    between atoms: _233  and  _234
REMARK   97  A    between atoms: _243  and  _245
REMARK   98  A    between atoms: _245  and  _246
REMARK   99  A    between atoms: _245  and  _248
REMARK  100  A    between atoms: _248  and  _249
REMARK  101  A    between atoms: _252  and  _254
REMARK  102  A    between atoms: _254  and  _255
REMARK  103  A    between atoms: _254  and  _257
REMARK  104  A    between atoms: _257  and  _258
REMARK  105  A    between atoms: _258  and  _259
REMARK  106  A    between atoms: _264  and  _266
REMARK  107  A    between atoms: _266  and  _267
REMARK  108  A    between atoms: _266  and  _269
REMARK  109  A    between atoms: _269  and  _270
REMARK  110  A    between atoms: _273  and  _275
REMARK  111  A    between atoms: _275  and  _276
REMARK  112  A    between atoms: _275  and  _278
REMARK  113  A    between atoms: _278  and  _279
REMARK  114  A    between atoms: _279  and  _280
REMARK  115  A    between atoms: _285  and  _287
REMARK  116  A    between atoms: _287  and  _288
REMARK  117  A    between atoms: _287  and  _290
REMARK  118  A    between atoms: _290  and  _291
REMARK  119  A    between atoms: _294  and  _296
REMARK  120  A    between atoms: _296  and  _297
REMARK  121  A    between atoms: _296  and  _299
REMARK  122  A    between atoms: _299  and  _300
REMARK  123  A    between atoms: _306  and  _308
REMARK  124  A    between atoms: _308  and  _309
REMARK  125  A    between atoms: _308  and  _311
REMARK  126  A    between atoms: _311  and  _312
REMARK  127  A    between atoms: _315  and  _317
REMARK  128  A    between atoms: _317  and  _318
REMARK  129  A    between atoms: _317  and  _320
REMARK  130  A    between atoms: _323  and  _325
REMARK  131  A    between atoms: _325  and  _326
REMARK  132  A    between atoms: _325  and  _328
REMARK  133  A    between atoms: _328  and  _329
REMARK  134  A    between atoms: _334  and  _336
REMARK  135  A    between atoms: _347  and  _350
REMARK  136  A    between atoms: _350  and  _351
REMARK  137  A    between atoms: _351  and  _352
REMARK  138  A    between atoms: _357  and  _360
REMARK  139  A    between atoms: _360  and  _361
REMARK  140  A    between atoms: _371  and  _372
REMARK  141  A    between atoms: _380  and  _382
REMARK  142  A    between atoms: _382  and  _383
REMARK  143  A    between atoms: _382  and  _385
REMARK  144  A    between atoms: _385  and  _386
REMARK  145  A    between atoms: _389  and  _391
REMARK  146  A    between atoms: _391  and  _392
REMARK  147  A    between atoms: _391  and  _394
REMARK  148  A    between atoms: _394  and  _395
REMARK  149  A    between atoms: _400  and  _401
REMARK  150  A    between atoms: _403  and  _405
REMARK  151  A    between atoms: _405  and  _406
REMARK  152  A    between atoms: _405  and  _408
REMARK  153  A    between atoms: _408  and  _409
REMARK  154  A    between atoms: _415  and  _417
REMARK  155  A    between atoms: _417  and  _418
REMARK  156  A    between atoms: _417  and  _420
REMARK  157  A    between atoms: _420  and  _421
REMARK  158  A    between atoms: _426  and  _427
REMARK  159  A    between atoms: _429  and  _431
REMARK  160  A    between atoms: _431  and  _432
REMARK  161  A    between atoms: _431  and  _434
REMARK  162  A    between atoms: _434  and  _435
REMARK  163  A    between atoms: _435  and  _436
REMARK  164  A    between atoms: _436  and  _437
REMARK  165  A    between atoms: _446  and  _448
REMARK  166  A    between atoms: _448  and  _449
REMARK  167  A    between atoms: _448  and  _451
REMARK  168  A    between atoms: _451  and  _452
REMARK  169  A    between atoms: _455  and  _457
REMARK  170  A    between atoms: _457  and  _458
REMARK  171  A    between atoms: _460  and  _462
REMARK  172  A    between atoms: _462  and  _463
REMARK  173  A    between atoms: _462  and  _465
REMARK  174  A    between atoms: _465  and  _466
REMARK  175  A    between atoms: _472  and  _473
REMARK  176  A    between atoms: _478  and  _480
REMARK  177  A    between atoms: _480  and  _481
REMARK  178  A    between atoms: _483  and  _485
REMARK  179  A    between atoms: _485  and  _486
REMARK  180  A    between atoms: _485  and  _488
REMARK  181  A    between atoms: _488  and  _489
REMARK  182  A    between atoms: _495  and  _497
REMARK  183  A    between atoms: _497  and  _498
REMARK  184  A    between atoms: _497  and  _500
REMARK  185  A    between atoms: _500  and  _501
REMARK  186  A    between atoms: _506  and  _508
REMARK  187  A    between atoms: _508  and  _509
REMARK  188  A    between atoms: _508  and  _511
REMARK  189  A    between atoms: _511  and  _512
REMARK  190  A    between atoms: _512  and  _513
REMARK  191  A    between atoms: _513  and  _514
REMARK  192  A    between atoms: _514  and  ZN_788
REMARK  193  A    between atoms: _516  and  _518
REMARK  194  A    between atoms: _518  and  _519
REMARK  195  A    between atoms: _522  and  _524
REMARK  196  A    between atoms: _524  and  _525
REMARK  197  A    between atoms: _527  and  _529
REMARK  198  A    between atoms: _529  and  _530
REMARK  199  A    between atoms: _529  and  _532
REMARK  200  A    between atoms: _532  and  _533
REMARK  201  A    between atoms: _536  and  _538
REMARK  202  A    between atoms: _538  and  _539
REMARK  203  A    between atoms: _538  and  _541
REMARK  204  A    between atoms: _544  and  _546
REMARK  205  A    between atoms: _546  and  _547
REMARK  206  A    between atoms: _546  and  _549
REMARK  207  A    between atoms: _549  and  _550
REMARK  208  A    between atoms: _552  and  _554
REMARK  209  A    between atoms: _554  and  _555
REMARK  210  A    between atoms: _554  and  _557
REMARK  211  A    between atoms: _557  and  _558
REMARK  212  A    between atoms: _561  and  _563
REMARK  213  A    between atoms: _563  and  _564
REMARK  214  A    between atoms: _563  and  _566
REMARK  215  A    between atoms: _566  and  _567
REMARK  216  A    between atoms: _570  and  _572
REMARK  217  A    between atoms: _572  and  _573
REMARK  218  A    between atoms: _572  and  _575
REMARK  219  A    between atoms: _575  and  _576
REMARK  220  A    between atoms: _576  and  _577
REMARK  221  A    between atoms: _577  and  _578
REMARK  222  A    between atoms: _578  and  _579
REMARK  223  A    between atoms: _583  and  _585
REMARK  224  A    between atoms: _585  and  _586
REMARK  225  A    between atoms: _585  and  _588
REMARK  226  A    between atoms: _588  and  _589
REMARK  227  A    between atoms: _595  and  _597
REMARK  228  A    between atoms: _597  and  _598
REMARK  229  A    between atoms: _597  and  _600
REMARK  230  A    between atoms: _600  and  _601
REMARK  231  A    between atoms: _607  and  _609
REMARK  232  A    between atoms: _609  and  _610
REMARK  233  A    between atoms: _613  and  _615
REMARK  234  A    between atoms: _615  and  _616
REMARK  235  A    between atoms: _615  and  _618
REMARK  236  A    between atoms: _618  and  _619
REMARK  237  A    between atoms: _619  and  _620
REMARK  238  A    between atoms: _622  and  _624
REMARK  239  A    between atoms: _624  and  _625
REMARK  240  A    between atoms: _624  and  _627
REMARK  241  A    between atoms: _627  and  _628
REMARK  242  A    between atoms: _628  and  _629
REMARK  243  A    between atoms: _629  and  _630
REMARK  244  A    between atoms: _630  and  _631
REMARK  245  A    between atoms: _635  and  _637
REMARK  246  A    between atoms: _637  and  _638
REMARK  247  A    between atoms: _637  and  _640
REMARK  248  A    between atoms: _640  and  _641
REMARK  249  A    between atoms: _646  and  _647
REMARK  250  A    between atoms: _649  and  _651
REMARK  251  A    between atoms: _651  and  _652
REMARK  252  A    between atoms: _651  and  _654
REMARK  253  A    between atoms: _654  and  _655
REMARK  254  A    between atoms: _660  and  _662
REMARK  255  A    between atoms: _662  and  _663
REMARK  256  A    between atoms: _662  and  _665
REMARK  257  A    between atoms: _665  and  _666
REMARK  258  A    between atoms: _669  and  _671
REMARK  259  A    between atoms: _671  and  _672
REMARK  260  A    between atoms: _675  and  _677
REMARK  261  A    between atoms: _677  and  _678
REMARK  262  A    between atoms: _677  and  _680
REMARK  263  A    between atoms: _680  and  _681
REMARK  264  A    between atoms: _684  and  _686
REMARK  265  A    between atoms: _686  and  _687
REMARK  266  A    between atoms: _686  and  _689
REMARK  267  A    between atoms: _692  and  _694
REMARK  268  A    between atoms: _694  and  _695
REMARK  269  A    between atoms: _694  and  _697
REMARK  270  A    between atoms: _697  and  _698
REMARK  271  A    between atoms: _698  and  _699
REMARK  272  A    between atoms: _702  and  _704
REMARK  273  A    between atoms: _704  and  _705
REMARK  274  A    between atoms: _704  and  _707
REMARK  275  A    between atoms: _707  and  _708
REMARK  276  A    between atoms: _713  and  _714
REMARK  277  A    between atoms: _716  and  _718
REMARK  278  A    between atoms: _718  and  _719
REMARK  279  A    between atoms: _718  and  _721
REMARK  280  A    between atoms: _721  and  _722
REMARK  281  A    between atoms: _722  and  _723
REMARK  282  A    between atoms: _723  and  _724
REMARK  283  A    between atoms: _733  and  _735
REMARK  284  A    between atoms: _735  and  _736
REMARK  285  A    between atoms: _735  and  _738
REMARK  286  A    between atoms: _738  and  _739
REMARK  287  A    between atoms: _744  and  _745
REMARK  288  A    between atoms: _747  and  _749
REMARK  289  A    between atoms: _749  and  _750
REMARK  290  A    between atoms: _749  and  _752
REMARK  291  A    between atoms: _752  and  _753
REMARK  292  A    between atoms: _756  and  _758
REMARK  293  A    between atoms: _758  and  _759
REMARK  294  A    between atoms: _758  and  _761
REMARK  295  A    between atoms: _761  and  _762
REMARK  296  A    between atoms: _764  and  _766
REMARK  297  A    between atoms: _766  and  _767
REMARK  298  A    between atoms: _766  and  _769
REMARK  299  A    between atoms: _769  and  _770
REMARK  300  A    between atoms: _776  and  _778
REMARK  301  A    between atoms: _778  and  _779
REMARK  302  A    between atoms: _778  and  _781
REMARK  303  A    between atoms: _781  and  _782
REMARK  304  A    between atoms: _782  and  _783
REMARK                            x       y       z     vdW  Elec       q    Type
REMARK                         _______ _______ _______ _____ _____    ______ ____
ROOT
ATOM      1  O   HOH     1      28.833  -0.973 -46.021  0.00  0.00    +0.000 OA
ENDROOT
TORSDOF 0
REMARK  Name = ../refined-set-2016/4ca8/4ca8_pocket.pdb
REMARK  304 active torsions:
REMARK  status: ('A' for Active; 'I' for Inactive)
REMARK    1  A    between atoms: _1  and  _3
REMARK    2  A    between atoms: _3  and  _4
REMARK    3  A    between atoms: _3  and  _6
REMARK    4  A    between atoms: _6  and  _7
REMARK    5  A    between atoms: _7  and  _8
REMARK    6  A    between atoms: _11  and  _13
REMARK    7  A    between atoms: _13  and  _14
REMARK    8  A    between atoms: _13  and  _16
REMARK    9  A    between atoms: _16  and  _17
REMARK   10  A    between atoms: _17  and  _18
REMARK   11  A    between atoms: _21  and  _23
REMARK   12  A    between atoms: _23  and  _24
REMARK   13  A    between atoms: _23  and  _26
REMARK   14  A    between atoms: _26  and  _27
REMARK   15  A    between atoms: _32  and  _34
REMARK   16  A    between atoms: _34  and  _35
REMARK   17  A    between atoms: _34  and  _37
REMARK   18  A    between atoms: _37  and  _38
REMARK   19  A    between atoms: _48  and  _50
REMARK   20  A    between atoms: _50  and  _51
REMARK   21  A    between atoms: _50  and  _53
REMARK   22  A    between atoms: _53  and  _54
REMARK   23  A    between atoms: _54  and  _55
REMARK   24  A    between atoms: _60  and  _62
REMARK   25  A    between atoms: _62  and  _63
REMARK   26  A    between atoms: _62  and  _65
REMARK   27  A    between atoms: _65  and  _66
REMARK   28  A    between atoms: _66  and  _67
REMARK   29  A    between atoms: _72  and  _74
REMARK   30  A    between atoms: _74  and  _75
REMARK   31  A    between atoms: _74  and  _77
REMARK   32  A    between atoms: _77  and  _78
REMARK   33  A    between atoms: _80  and  _82
REMARK   34  A    between atoms: _82  and  _83
REMARK   35  A    between atoms: _82  and  _85
REMARK   36  A    between atoms: _85  and  _86
REMARK   37  A    between atoms: _86  and  _87
REMARK   38  A    between atoms: _90  and  _92
REMARK   39  A    between atoms: _92  and  _93
REMARK   40  A    between atoms: _92  and  _95
REMARK   41  A    between atoms: _98  and  _100
REMARK   42  A    between atoms: _100  and  _101
REMARK   43  A    between atoms: _100  and  _103
REMARK   44  A    between atoms: _105  and  _107
REMARK   45  A    between atoms: _107  and  _108
REMARK   46  A    between atoms: _107  and  _110
REMARK   47  A    between atoms: _110  and  _111
REMARK   48  A    between atoms: _116  and  _118
REMARK   49  A    between atoms: _118  and  _119
REMARK   50  A    between atoms: _122  and  _124
REMARK   51  A    between atoms: _124  and  _125
REMARK   52  A    between atoms: _124  and  _127
REMARK   53  A    between atoms: _127  and  _128
REMARK   54  A    between atoms: _130  and  _132
REMARK   55  A    between atoms: _132  and  _133
REMARK   56  A    between atoms: _136  and  _138
REMARK   57  A    between atoms: _138  and  _139
REMARK   58  A    between atoms: _138  and  _141
REMARK   59  A    between atoms: _141  and  _142
REMARK   60  A    between atoms: _152  and  _154
REMARK   61  A    between atoms: _154  and  _155
REMARK   62  A    between atoms: _154  and  _157
REMARK   63  A    between atoms: _157  and  _158
REMARK   64  A    between atoms: _161  and  _163
REMARK   65  A    between atoms: _163  and  _164
REMARK   66  A    between atoms: _163  and  _166
REMARK   67  A    between atoms: _166  and  _167
REMARK   68  A    between atoms: _172  and  _173
REMARK   69  A    between atoms: _175  and  _177
REMARK   70  A    between atoms: _177  and  _178
REMARK   71  A    between atoms: _177  and  _180
REMARK   72  A    between atoms: _180  and  _181
REMARK   73  A    between atoms: _181  and  _182
REMARK   74  A    between atoms: _182  and  _183
REMARK   75  A    between atoms: _192  and  _194
REMARK   76  A    between atoms: _194  and  _195
REMARK   77  A    between atoms: _194  and  _197
REMARK   78  A    between atoms: _197  and  _198
REMARK   79  A    between atoms: _201  and  _203
REMARK   80  A    between atoms: _203  and  _204
REMARK   81  A    between atoms: _203  and  _206
REMARK   82  A    between atoms: _206  and  _207
REMARK   83  A    between atoms: _207  and  _208
REMARK   84  A    between atoms: _208  and  _209
REMARK   85  A    between atoms: _209  and  _210
REMARK   86  A    between atoms: _214  and  _216
REMARK   87  A    between atoms: _216  and  _217
REMARK   88  A    between atoms: _216  and  _219
REMARK   89  A    between atoms: _219  and  _220
REMARK   90  A    between atoms: _220  and  _221
REMARK   91  A    between atoms: _226  and  _228
REMARK   92  A    between atoms: _228  and  _229
REMARK   93  A    between atoms: _228  and  _231
REMARK   94  A    between atoms: _231  and  _232
REMARK   95  A    between atoms: _232  and  _233
REMARK   96  A    between atoms: _233  and  _234
REMARK   97  A    between atoms: _243  and  _245
REMARK   98  A    between atoms: _245  and  _246
REMARK   99  A    between atoms: _245  and  _248
REMARK  100  A    between atoms: _248  and  _249
REMARK  101  A    between atoms: _252  and  _254
REMARK  102  A    between atoms: _254  and  _255
REMARK  103  A    between atoms: _254  and  _257
REMARK  104  A    between atoms: _257  and  _258
REMARK  105  A    between atoms: _258  and  _259
REMARK  106  A    between atoms: _264  and  _266
REMARK  107  A    between atoms: _266  and  _267
REMARK  108  A    between atoms: _266  and  _269
REMARK  109  A    between atoms: _269  and  _270
REMARK  110  A    between atoms: _273  and  _275
REMARK  111  A    between atoms: _275  and  _276
REMARK  112  A    between atoms: _275  and  _278
REMARK  113  A    between atoms: _278  and  _279
REMARK  114  A    between atoms: _279  and  _280
REMARK  115  A    between atoms: _285  and  _287
REMARK  116  A    between atoms: _287  and  _288
REMARK  117  A    between atoms: _287  and  _290
REMARK  118  A    between atoms: _290  and  _291
REMARK  119  A    between atoms: _294  and  _296
REMARK  120  A    between atoms: _296  and  _297
REMARK  121  A    between atoms: _296  and  _299
REMARK  122  A    between atoms: _299  and  _300
REMARK  123  A    between atoms: _306  and  _308
REMARK  124  A    between atoms: _308  and  _309
REMARK  125  A    between atoms: _308  and  _311
REMARK  126  A    between atoms: _311  and  _312
REMARK  127  A    between atoms: _315  and  _317
REMARK  128  A    between atoms: _317  and  _318
REMARK  129  A    between atoms: _317  and  _320
REMARK  130  A    between atoms: _323  and  _325
REMARK  131  A    between atoms: _325  and  _326
REMARK  132  A    between atoms: _325  and  _328
REMARK  133  A    between atoms: _328  and  _329
REMARK  134  A    between atoms: _334  and  _336
REMARK  135  A    between atoms: _347  and  _350
REMARK  136  A    between atoms: _350  and  _351
REMARK  137  A    between atoms: _351  and  _352
REMARK  138  A    between atoms: _357  and  _360
REMARK  139  A    between atoms: _360  and  _361
REMARK  140  A    between atoms: _371  and  _372
REMARK  141  A    between atoms: _380  and  _382
REMARK  142  A    between atoms: _382  and  _383
REMARK  143  A    between atoms: _382  and  _385
REMARK  144  A    between atoms: _385  and  _386
REMARK  145  A    between atoms: _389  and  _391
REMARK  146  A    between atoms: _391  and  _392
REMARK  147  A    between atoms: _391  and  _394
REMARK  148  A    between atoms: _394  and  _395
REMARK  149  A    between atoms: _400  and  _401
REMARK  150  A    between atoms: _403  and  _405
REMARK  151  A    between atoms: _405  and  _406
REMARK  152  A    between atoms: _405  and  _408
REMARK  153  A    between atoms: _408  and  _409
REMARK  154  A    between atoms: _415  and  _417
REMARK  155  A    between atoms: _417  and  _418
REMARK  156  A    between atoms: _417  and  _420
REMARK  157  A    between atoms: _420  and  _421
REMARK  158  A    between atoms: _426  and  _427
REMARK  159  A    between atoms: _429  and  _431
REMARK  160  A    between atoms: _431  and  _432
REMARK  161  A    between atoms: _431  and  _434
REMARK  162  A    between atoms: _434  and  _435
REMARK  163  A    between atoms: _435  and  _436
REMARK  164  A    between atoms: _436  and  _437
REMARK  165  A    between atoms: _446  and  _448
REMARK  166  A    between atoms: _448  and  _449
REMARK  167  A    between atoms: _448  and  _451
REMARK  168  A    between atoms: _451  and  _452
REMARK  169  A    between atoms: _455  and  _457
REMARK  170  A    between atoms: _457  and  _458
REMARK  171  A    between atoms: _460  and  _462
REMARK  172  A    between atoms: _462  and  _463
REMARK  173  A    between atoms: _462  and  _465
REMARK  174  A    between atoms: _465  and  _466
REMARK  175  A    between atoms: _472  and  _473
REMARK  176  A    between atoms: _478  and  _480
REMARK  177  A    between atoms: _480  and  _481
REMARK  178  A    between atoms: _483  and  _485
REMARK  179  A    between atoms: _485  and  _486
REMARK  180  A    between atoms: _485  and  _488
REMARK  181  A    between atoms: _488  and  _489
REMARK  182  A    between atoms: _495  and  _497
REMARK  183  A    between atoms: _497  and  _498
REMARK  184  A    between atoms: _497  and  _500
REMARK  185  A    between atoms: _500  and  _501
REMARK  186  A    between atoms: _506  and  _508
REMARK  187  A    between atoms: _508  and  _509
REMARK  188  A    between atoms: _508  and  _511
REMARK  189  A    between atoms: _511  and  _512
REMARK  190  A    between atoms: _512  and  _513
REMARK  191  A    between atoms: _513  and  _514
REMARK  192  A    between atoms: _514  and  ZN_788
REMARK  193  A    between atoms: _516  and  _518
REMARK  194  A    between atoms: _518  and  _519
REMARK  195  A    between atoms: _522  and  _524
REMARK  196  A    between atoms: _524  and  _525
REMARK  197  A    between atoms: _527  and  _529
REMARK  198  A    between atoms: _529  and  _530
REMARK  199  A    between atoms: _529  and  _532
REMARK  200  A    between atoms: _532  and  _533
REMARK  201  A    between atoms: _536  and  _538
REMARK  202  A    between atoms: _538  and  _539
REMARK  203  A    between atoms: _538  and  _541
REMARK  204  A    between atoms: _544  and  _546
REMARK  205  A    between atoms: _546  and  _547
REMARK  206  A    between atoms: _546  and  _549
REMARK  207  A    between atoms: _549  and  _550
REMARK  208  A    between atoms: _552  and  _554
REMARK  209  A    between atoms: _554  and  _555
REMARK  210  A    between atoms: _554  and  _557
REMARK  211  A    between atoms: _557  and  _558
REMARK  212  A    between atoms: _561  and  _563
REMARK  213  A    between atoms: _563  and  _564
REMARK  214  A    between atoms: _563  and  _566
REMARK  215  A    between atoms: _566  and  _567
REMARK  216  A    between atoms: _570  and  _572
REMARK  217  A    between atoms: _572  and  _573
REMARK  218  A    between atoms: _572  and  _575
REMARK  219  A    between atoms: _575  and  _576
REMARK  220  A    between atoms: _576  and  _577
REMARK  221  A    between atoms: _577  and  _578
REMARK  222  A    between atoms: _578  and  _579
REMARK  223  A    between atoms: _583  and  _585
REMARK  224  A    between atoms: _585  and  _586
REMARK  225  A    between atoms: _585  and  _588
REMARK  226  A    between atoms: _588  and  _589
REMARK  227  A    between atoms: _595  and  _597
REMARK  228  A    between atoms: _597  and  _598
REMARK  229  A    between atoms: _597  and  _600
REMARK  230  A    between atoms: _600  and  _601
REMARK  231  A    between atoms: _607  and  _609
REMARK  232  A    between atoms: _609  and  _610
REMARK  233  A    between atoms: _613  and  _615
REMARK  234  A    between atoms: _615  and  _616
REMARK  235  A    between atoms: _615  and  _618
REMARK  236  A    between atoms: _618  and  _619
REMARK  237  A    between atoms: _619  and  _620
REMARK  238  A    between atoms: _622  and  _624
REMARK  239  A    between atoms: _624  and  _625
REMARK  240  A    between atoms: _624  and  _627
REMARK  241  A    between atoms: _627  and  _628
REMARK  242  A    between atoms: _628  and  _629
REMARK  243  A    between atoms: _629  and  _630
REMARK  244  A    between atoms: _630  and  _631
REMARK  245  A    between atoms: _635  and  _637
REMARK  246  A    between atoms: _637  and  _638
REMARK  247  A    between atoms: _637  and  _640
REMARK  248  A    between atoms: _640  and  _641
REMARK  249  A    between atoms: _646  and  _647
REMARK  250  A    between atoms: _649  and  _651
REMARK  251  A    between atoms: _651  and  _652
REMARK  252  A    between atoms: _651  and  _654
REMARK  253  A    between atoms: _654  and  _655
REMARK  254  A    between atoms: _660  and  _662
REMARK  255  A    between atoms: _662  and  _663
REMARK  256  A    between atoms: _662  and  _665
REMARK  257  A    between atoms: _665  and  _666
REMARK  258  A    between atoms: _669  and  _671
REMARK  259  A    between atoms: _671  and  _672
REMARK  260  A    between atoms: _675  and  _677
REMARK  261  A    between atoms: _677  and  _678
REMARK  262  A    between atoms: _677  and  _680
REMARK  263  A    between atoms: _680  and  _681
REMARK  264  A    between atoms: _684  and  _686
REMARK  265  A    between atoms: _686  and  _687
REMARK  266  A    between atoms: _686  and  _689
REMARK  267  A    between atoms: _692  and  _694
REMARK  268  A    between atoms: _694  and  _695
REMARK  269  A    between atoms: _694  and  _697
REMARK  270  A    between atoms: _697  and  _698
REMARK  271  A    between atoms: _698  and  _699
REMARK  272  A    between atoms: _702  and  _704
REMARK  273  A    between atoms: _704  and  _705
REMARK  274  A    between atoms: _704  and  _707
REMARK  275  A    between atoms: _707  and  _708
REMARK  276  A    between atoms: _713  and  _714
REMARK  277  A    between atoms: _716  and  _718
REMARK  278  A    between atoms: _718  and  _719
REMARK  279  A    between atoms: _718  and  _721
REMARK  280  A    between atoms: _721  and  _722
REMARK  281  A    between atoms: _722  and  _723
REMARK  282  A    between atoms: _723  and  _724
REMARK  283  A    between atoms: _733  and  _735
REMARK  284  A    between atoms: _735  and  _736
REMARK  285  A    between atoms: _735  and  _738
REMARK  286  A    between atoms: _738  and  _739
REMARK  287  A    between atoms: _744  and  _745
REMARK  288  A    between atoms: _747  and  _749
REMARK  289  A    between atoms: _749  and  _750
REMARK  290  A    between atoms: _749  and  _752
REMARK  291  A    between atoms: _752  and  _753
REMARK  292  A    between atoms: _756  and  _758
REMARK  293  A    between atoms: _758  and  _759
REMARK  294  A    between atoms: _758  and  _761
REMARK  295  A    between atoms: _761  and  _762
REMARK  296  A    between atoms: _764  and  _766
REMARK  297  A    between atoms: _766  and  _767
REMARK  298  A    between atoms: _766  and  _769
REMARK  299  A    between atoms: _769  and  _770
REMARK  300  A    between atoms: _776  and  _778
REMARK  301  A    between atoms: _778  and  _779
REMARK  302  A    between atoms: _778  and  _781
REMARK  303  A    between atoms: _781  and  _782
REMARK  304  A    between atoms: _782  and  _783
REMARK                            x       y       z     vdW  Elec       q    Type
REMARK                         _______ _______ _______ _____ _____    ______ ____
ROOT
ATOM      1  O   HOH     1      33.488   3.150 -36.026  0.00  0.00    +0.000 OA
ENDROOT
TORSDOF 0
REMARK  Name = ../refined-set-2016/4ca8/4ca8_pocket.pdb
REMARK  304 active torsions:
REMARK  status: ('A' for Active; 'I' for Inactive)
REMARK    1  A    between atoms: _1  and  _3
REMARK    2  A    between atoms: _3  and  _4
REMARK    3  A    between atoms: _3  and  _6
REMARK    4  A    between atoms: _6  and  _7
REMARK    5  A    between atoms: _7  and  _8
REMARK    6  A    between atoms: _11  and  _13
REMARK    7  A    between atoms: _13  and  _14
REMARK    8  A    between atoms: _13  and  _16
REMARK    9  A    between atoms: _16  and  _17
REMARK   10  A    between atoms: _17  and  _18
REMARK   11  A    between atoms: _21  and  _23
REMARK   12  A    between atoms: _23  and  _24
REMARK   13  A    between atoms: _23  and  _26
REMARK   14  A    between atoms: _26  and  _27
REMARK   15  A    between atoms: _32  and  _34
REMARK   16  A    between atoms: _34  and  _35
REMARK   17  A    between atoms: _34  and  _37
REMARK   18  A    between atoms: _37  and  _38
REMARK   19  A    between atoms: _48  and  _50
REMARK   20  A    between atoms: _50  and  _51
REMARK   21  A    between atoms: _50  and  _53
REMARK   22  A    between atoms: _53  and  _54
REMARK   23  A    between atoms: _54  and  _55
REMARK   24  A    between atoms: _60  and  _62
REMARK   25  A    between atoms: _62  and  _63
REMARK   26  A    between atoms: _62  and  _65
REMARK   27  A    between atoms: _65  and  _66
REMARK   28  A    between atoms: _66  and  _67
REMARK   29  A    between atoms: _72  and  _74
REMARK   30  A    between atoms: _74  and  _75
REMARK   31  A    between atoms: _74  and  _77
REMARK   32  A    between atoms: _77  and  _78
REMARK   33  A    between atoms: _80  and  _82
REMARK   34  A    between atoms: _82  and  _83
REMARK   35  A    between atoms: _82  and  _85
REMARK   36  A    between atoms: _85  and  _86
REMARK   37  A    between atoms: _86  and  _87
REMARK   38  A    between atoms: _90  and  _92
REMARK   39  A    between atoms: _92  and  _93
REMARK   40  A    between atoms: _92  and  _95
REMARK   41  A    between atoms: _98  and  _100
REMARK   42  A    between atoms: _100  and  _101
REMARK   43  A    between atoms: _100  and  _103
REMARK   44  A    between atoms: _105  and  _107
REMARK   45  A    between atoms: _107  and  _108
REMARK   46  A    between atoms: _107  and  _110
REMARK   47  A    between atoms: _110  and  _111
REMARK   48  A    between atoms: _116  and  _118
REMARK   49  A    between atoms: _118  and  _119
REMARK   50  A    between atoms: _122  and  _124
REMARK   51  A    between atoms: _124  and  _125
REMARK   52  A    between atoms: _124  and  _127
REMARK   53  A    between atoms: _127  and  _128
REMARK   54  A    between atoms: _130  and  _132
REMARK   55  A    between atoms: _132  and  _133
REMARK   56  A    between atoms: _136  and  _138
REMARK   57  A    between atoms: _138  and  _139
REMARK   58  A    between atoms: _138  and  _141
REMARK   59  A    between atoms: _141  and  _142
REMARK   60  A    between atoms: _152  and  _154
REMARK   61  A    between atoms: _154  and  _155
REMARK   62  A    between atoms: _154  and  _157
REMARK   63  A    between atoms: _157  and  _158
REMARK   64  A    between atoms: _161  and  _163
REMARK   65  A    between atoms: _163  and  _164
REMARK   66  A    between atoms: _163  and  _166
REMARK   67  A    between atoms: _166  and  _167
REMARK   68  A    between atoms: _172  and  _173
REMARK   69  A    between atoms: _175  and  _177
REMARK   70  A    between atoms: _177  and  _178
REMARK   71  A    between atoms: _177  and  _180
REMARK   72  A    between atoms: _180  and  _181
REMARK   73  A    between atoms: _181  and  _182
REMARK   74  A    between atoms: _182  and  _183
REMARK   75  A    between atoms: _192  and  _194
REMARK   76  A    between atoms: _194  and  _195
REMARK   77  A    between atoms: _194  and  _197
REMARK   78  A    between atoms: _197  and  _198
REMARK   79  A    between atoms: _201  and  _203
REMARK   80  A    between atoms: _203  and  _204
REMARK   81  A    between atoms: _203  and  _206
REMARK   82  A    between atoms: _206  and  _207
REMARK   83  A    between atoms: _207  and  _208
REMARK   84  A    between atoms: _208  and  _209
REMARK   85  A    between atoms: _209  and  _210
REMARK   86  A    between atoms: _214  and  _216
REMARK   87  A    between atoms: _216  and  _217
REMARK   88  A    between atoms: _216  and  _219
REMARK   89  A    between atoms: _219  and  _220
REMARK   90  A    between atoms: _220  and  _221
REMARK   91  A    between atoms: _226  and  _228
REMARK   92  A    between atoms: _228  and  _229
REMARK   93  A    between atoms: _228  and  _231
REMARK   94  A    between atoms: _231  and  _232
REMARK   95  A    between atoms: _232  and  _233
REMARK   96  A    between atoms: _233  and  _234
REMARK   97  A    between atoms: _243  and  _245
REMARK   98  A    between atoms: _245  and  _246
REMARK   99  A    between atoms: _245  and  _248
REMARK  100  A    between atoms: _248  and  _249
REMARK  101  A    between atoms: _252  and  _254
REMARK  102  A    between atoms: _254  and  _255
REMARK  103  A    between atoms: _254  and  _257
REMARK  104  A    between atoms: _257  and  _258
REMARK  105  A    between atoms: _258  and  _259
REMARK  106  A    between atoms: _264  and  _266
REMARK  107  A    between atoms: _266  and  _267
REMARK  108  A    between atoms: _266  and  _269
REMARK  109  A    between atoms: _269  and  _270
REMARK  110  A    between atoms: _273  and  _275
REMARK  111  A    between atoms: _275  and  _276
REMARK  112  A    between atoms: _275  and  _278
REMARK  113  A    between atoms: _278  and  _279
REMARK  114  A    between atoms: _279  and  _280
REMARK  115  A    between atoms: _285  and  _287
REMARK  116  A    between atoms: _287  and  _288
REMARK  117  A    between atoms: _287  and  _290
REMARK  118  A    between atoms: _290  and  _291
REMARK  119  A    between atoms: _294  and  _296
REMARK  120  A    between atoms: _296  and  _297
REMARK  121  A    between atoms: _296  and  _299
REMARK  122  A    between atoms: _299  and  _300
REMARK  123  A    between atoms: _306  and  _308
REMARK  124  A    between atoms: _308  and  _309
REMARK  125  A    between atoms: _308  and  _311
REMARK  126  A    between atoms: _311  and  _312
REMARK  127  A    between atoms: _315  and  _317
REMARK  128  A    between atoms: _317  and  _318
REMARK  129  A    between atoms: _317  and  _320
REMARK  130  A    between atoms: _323  and  _325
REMARK  131  A    between atoms: _325  and  _326
REMARK  132  A    between atoms: _325  and  _328
REMARK  133  A    between atoms: _328  and  _329
REMARK  134  A    between atoms: _334  and  _336
REMARK  135  A    between atoms: _347  and  _350
REMARK  136  A    between atoms: _350  and  _351
REMARK  137  A    between atoms: _351  and  _352
REMARK  138  A    between atoms: _357  and  _360
REMARK  139  A    between atoms: _360  and  _361
REMARK  140  A    between atoms: _371  and  _372
REMARK  141  A    between atoms: _380  and  _382
REMARK  142  A    between atoms: _382  and  _383
REMARK  143  A    between atoms: _382  and  _385
REMARK  144  A    between atoms: _385  and  _386
REMARK  145  A    between atoms: _389  and  _391
REMARK  146  A    between atoms: _391  and  _392
REMARK  147  A    between atoms: _391  and  _394
REMARK  148  A    between atoms: _394  and  _395
REMARK  149  A    between atoms: _400  and  _401
REMARK  150  A    between atoms: _403  and  _405
REMARK  151  A    between atoms: _405  and  _406
REMARK  152  A    between atoms: _405  and  _408
REMARK  153  A    between atoms: _408  and  _409
REMARK  154  A    between atoms: _415  and  _417
REMARK  155  A    between atoms: _417  and  _418
REMARK  156  A    between atoms: _417  and  _420
REMARK  157  A    between atoms: _420  and  _421
REMARK  158  A    between atoms: _426  and  _427
REMARK  159  A    between atoms: _429  and  _431
REMARK  160  A    between atoms: _431  and  _432
REMARK  161  A    between atoms: _431  and  _434
REMARK  162  A    between atoms: _434  and  _435
REMARK  163  A    between atoms: _435  and  _436
REMARK  164  A    between atoms: _436  and  _437
REMARK  165  A    between atoms: _446  and  _448
REMARK  166  A    between atoms: _448  and  _449
REMARK  167  A    between atoms: _448  and  _451
REMARK  168  A    between atoms: _451  and  _452
REMARK  169  A    between atoms: _455  and  _457
REMARK  170  A    between atoms: _457  and  _458
REMARK  171  A    between atoms: _460  and  _462
REMARK  172  A    between atoms: _462  and  _463
REMARK  173  A    between atoms: _462  and  _465
REMARK  174  A    between atoms: _465  and  _466
REMARK  175  A    between atoms: _472  and  _473
REMARK  176  A    between atoms: _478  and  _480
REMARK  177  A    between atoms: _480  and  _481
REMARK  178  A    between atoms: _483  and  _485
REMARK  179  A    between atoms: _485  and  _486
REMARK  180  A    between atoms: _485  and  _488
REMARK  181  A    between atoms: _488  and  _489
REMARK  182  A    between atoms: _495  and  _497
REMARK  183  A    between atoms: _497  and  _498
REMARK  184  A    between atoms: _497  and  _500
REMARK  185  A    between atoms: _500  and  _501
REMARK  186  A    between atoms: _506  and  _508
REMARK  187  A    between atoms: _508  and  _509
REMARK  188  A    between atoms: _508  and  _511
REMARK  189  A    between atoms: _511  and  _512
REMARK  190  A    between atoms: _512  and  _513
REMARK  191  A    between atoms: _513  and  _514
REMARK  192  A    between atoms: _514  and  ZN_788
REMARK  193  A    between atoms: _516  and  _518
REMARK  194  A    between atoms: _518  and  _519
REMARK  195  A    between atoms: _522  and  _524
REMARK  196  A    between atoms: _524  and  _525
REMARK  197  A    between atoms: _527  and  _529
REMARK  198  A    between atoms: _529  and  _530
REMARK  199  A    between atoms: _529  and  _532
REMARK  200  A    between atoms: _532  and  _533
REMARK  201  A    between atoms: _536  and  _538
REMARK  202  A    between atoms: _538  and  _539
REMARK  203  A    between atoms: _538  and  _541
REMARK  204  A    between atoms: _544  and  _546
REMARK  205  A    between atoms: _546  and  _547
REMARK  206  A    between atoms: _546  and  _549
REMARK  207  A    between atoms: _549  and  _550
REMARK  208  A    between atoms: _552  and  _554
REMARK  209  A    between atoms: _554  and  _555
REMARK  210  A    between atoms: _554  and  _557
REMARK  211  A    between atoms: _557  and  _558
REMARK  212  A    between atoms: _561  and  _563
REMARK  213  A    between atoms: _563  and  _564
REMARK  214  A    between atoms: _563  and  _566
REMARK  215  A    between atoms: _566  and  _567
REMARK  216  A    between atoms: _570  and  _572
REMARK  217  A    between atoms: _572  and  _573
REMARK  218  A    between atoms: _572  and  _575
REMARK  219  A    between atoms: _575  and  _576
REMARK  220  A    between atoms: _576  and  _577
REMARK  221  A    between atoms: _577  and  _578
REMARK  222  A    between atoms: _578  and  _579
REMARK  223  A    between atoms: _583  and  _585
REMARK  224  A    between atoms: _585  and  _586
REMARK  225  A    between atoms: _585  and  _588
REMARK  226  A    between atoms: _588  and  _589
REMARK  227  A    between atoms: _595  and  _597
REMARK  228  A    between atoms: _597  and  _598
REMARK  229  A    between atoms: _597  and  _600
REMARK  230  A    between atoms: _600  and  _601
REMARK  231  A    between atoms: _607  and  _609
REMARK  232  A    between atoms: _609  and  _610
REMARK  233  A    between atoms: _613  and  _615
REMARK  234  A    between atoms: _615  and  _616
REMARK  235  A    between atoms: _615  and  _618
REMARK  236  A    between atoms: _618  and  _619
REMARK  237  A    between atoms: _619  and  _620
REMARK  238  A    between atoms: _622  and  _624
REMARK  239  A    between atoms: _624  and  _625
REMARK  240  A    between atoms: _624  and  _627
REMARK  241  A    between atoms: _627  and  _628
REMARK  242  A    between atoms: _628  and  _629
REMARK  243  A    between atoms: _629  and  _630
REMARK  244  A    between atoms: _630  and  _631
REMARK  245  A    between atoms: _635  and  _637
REMARK  246  A    between atoms: _637  and  _638
REMARK  247  A    between atoms: _637  and  _640
REMARK  248  A    between atoms: _640  and  _641
REMARK  249  A    between atoms: _646  and  _647
REMARK  250  A    between atoms: _649  and  _651
REMARK  251  A    between atoms: _651  and  _652
REMARK  252  A    between atoms: _651  and  _654
REMARK  253  A    between atoms: _654  and  _655
REMARK  254  A    between atoms: _660  and  _662
REMARK  255  A    between atoms: _662  and  _663
REMARK  256  A    between atoms: _662  and  _665
REMARK  257  A    between atoms: _665  and  _666
REMARK  258  A    between atoms: _669  and  _671
REMARK  259  A    between atoms: _671  and  _672
REMARK  260  A    between atoms: _675  and  _677
REMARK  261  A    between atoms: _677  and  _678
REMARK  262  A    between atoms: _677  and  _680
REMARK  263  A    between atoms: _680  and  _681
REMARK  264  A    between atoms: _684  and  _686
REMARK  265  A    between atoms: _686  and  _687
REMARK  266  A    between atoms: _686  and  _689
REMARK  267  A    between atoms: _692  and  _694
REMARK  268  A    between atoms: _694  and  _695
REMARK  269  A    between atoms: _694  and  _697
REMARK  270  A    between atoms: _697  and  _698
REMARK  271  A    between atoms: _698  and  _699
REMARK  272  A    between atoms: _702  and  _704
REMARK  273  A    between atoms: _704  and  _705
REMARK  274  A    between atoms: _704  and  _707
REMARK  275  A    between atoms: _707  and  _708
REMARK  276  A    between atoms: _713  and  _714
REMARK  277  A    between atoms: _716  and  _718
REMARK  278  A    between atoms: _718  and  _719
REMARK  279  A    between atoms: _718  and  _721
REMARK  280  A    between atoms: _721  and  _722
REMARK  281  A    between atoms: _722  and  _723
REMARK  282  A    between atoms: _723  and  _724
REMARK  283  A    between atoms: _733  and  _735
REMARK  284  A    between atoms: _735  and  _736
REMARK  285  A    between atoms: _735  and  _738
REMARK  286  A    between atoms: _738  and  _739
REMARK  287  A    between atoms: _744  and  _745
REMARK  288  A    between atoms: _747  and  _749
REMARK  289  A    between atoms: _749  and  _750
REMARK  290  A    between atoms: _749  and  _752
REMARK  291  A    between atoms: _752  and  _753
REMARK  292  A    between atoms: _756  and  _758
REMARK  293  A    between atoms: _758  and  _759
REMARK  294  A    between atoms: _758  and  _761
REMARK  295  A    between atoms: _761  and  _762
REMARK  296  A    between atoms: _764  and  _766
REMARK  297  A    between atoms: _766  and  _767
REMARK  298  A    between atoms: _766  and  _769
REMARK  299  A    between atoms: _769  and  _770
REMARK  300  A    between atoms: _776  and  _778
REMARK  301  A    between atoms: _778  and  _779
REMARK  302  A    between atoms: _778  and  _781
REMARK  303  A    between atoms: _781  and  _782
REMARK  304  A    between atoms: _782  and  _783
REMARK                            x       y       z     vdW  Elec       q    Type
REMARK                         _______ _______ _______ _____ _____    ______ ____
ROOT
ATOM      1  O   HOH     1      31.082  -8.430 -42.365  0.00  0.00    +0.000 OA
ENDROOT
TORSDOF 0
REMARK  Name = ../refined-set-2016/4ca8/4ca8_pocket.pdb
REMARK  304 active torsions:
REMARK  status: ('A' for Active; 'I' for Inactive)
REMARK    1  A    between atoms: _1  and  _3
REMARK    2  A    between atoms: _3  and  _4
REMARK    3  A    between atoms: _3  and  _6
REMARK    4  A    between atoms: _6  and  _7
REMARK    5  A    between atoms: _7  and  _8
REMARK    6  A    between atoms: _11  and  _13
REMARK    7  A    between atoms: _13  and  _14
REMARK    8  A    between atoms: _13  and  _16
REMARK    9  A    between atoms: _16  and  _17
REMARK   10  A    between atoms: _17  and  _18
REMARK   11  A    between atoms: _21  and  _23
REMARK   12  A    between atoms: _23  and  _24
REMARK   13  A    between atoms: _23  and  _26
REMARK   14  A    between atoms: _26  and  _27
REMARK   15  A    between atoms: _32  and  _34
REMARK   16  A    between atoms: _34  and  _35
REMARK   17  A    between atoms: _34  and  _37
REMARK   18  A    between atoms: _37  and  _38
REMARK   19  A    between atoms: _48  and  _50
REMARK   20  A    between atoms: _50  and  _51
REMARK   21  A    between atoms: _50  and  _53
REMARK   22  A    between atoms: _53  and  _54
REMARK   23  A    between atoms: _54  and  _55
REMARK   24  A    between atoms: _60  and  _62
REMARK   25  A    between atoms: _62  and  _63
REMARK   26  A    between atoms: _62  and  _65
REMARK   27  A    between atoms: _65  and  _66
REMARK   28  A    between atoms: _66  and  _67
REMARK   29  A    between atoms: _72  and  _74
REMARK   30  A    between atoms: _74  and  _75
REMARK   31  A    between atoms: _74  and  _77
REMARK   32  A    between atoms: _77  and  _78
REMARK   33  A    between atoms: _80  and  _82
REMARK   34  A    between atoms: _82  and  _83
REMARK   35  A    between atoms: _82  and  _85
REMARK   36  A    between atoms: _85  and  _86
REMARK   37  A    between atoms: _86  and  _87
REMARK   38  A    between atoms: _90  and  _92
REMARK   39  A    between atoms: _92  and  _93
REMARK   40  A    between atoms: _92  and  _95
REMARK   41  A    between atoms: _98  and  _100
REMARK   42  A    between atoms: _100  and  _101
REMARK   43  A    between atoms: _100  and  _103
REMARK   44  A    between atoms: _105  and  _107
REMARK   45  A    between atoms: _107  and  _108
REMARK   46  A    between atoms: _107  and  _110
REMARK   47  A    between atoms: _110  and  _111
REMARK   48  A    between atoms: _116  and  _118
REMARK   49  A    between atoms: _118  and  _119
REMARK   50  A    between atoms: _122  and  _124
REMARK   51  A    between atoms: _124  and  _125
REMARK   52  A    between atoms: _124  and  _127
REMARK   53  A    between atoms: _127  and  _128
REMARK   54  A    between atoms: _130  and  _132
REMARK   55  A    between atoms: _132  and  _133
REMARK   56  A    between atoms: _136  and  _138
REMARK   57  A    between atoms: _138  and  _139
REMARK   58  A    between atoms: _138  and  _141
REMARK   59  A    between atoms: _141  and  _142
REMARK   60  A    between atoms: _152  and  _154
REMARK   61  A    between atoms: _154  and  _155
REMARK   62  A    between atoms: _154  and  _157
REMARK   63  A    between atoms: _157  and  _158
REMARK   64  A    between atoms: _161  and  _163
REMARK   65  A    between atoms: _163  and  _164
REMARK   66  A    between atoms: _163  and  _166
REMARK   67  A    between atoms: _166  and  _167
REMARK   68  A    between atoms: _172  and  _173
REMARK   69  A    between atoms: _175  and  _177
REMARK   70  A    between atoms: _177  and  _178
REMARK   71  A    between atoms: _177  and  _180
REMARK   72  A    between atoms: _180  and  _181
REMARK   73  A    between atoms: _181  and  _182
REMARK   74  A    between atoms: _182  and  _183
REMARK   75  A    between atoms: _192  and  _194
REMARK   76  A    between atoms: _194  and  _195
REMARK   77  A    between atoms: _194  and  _197
REMARK   78  A    between atoms: _197  and  _198
REMARK   79  A    between atoms: _201  and  _203
REMARK   80  A    between atoms: _203  and  _204
REMARK   81  A    between atoms: _203  and  _206
REMARK   82  A    between atoms: _206  and  _207
REMARK   83  A    between atoms: _207  and  _208
REMARK   84  A    between atoms: _208  and  _209
REMARK   85  A    between atoms: _209  and  _210
REMARK   86  A    between atoms: _214  and  _216
REMARK   87  A    between atoms: _216  and  _217
REMARK   88  A    between atoms: _216  and  _219
REMARK   89  A    between atoms: _219  and  _220
REMARK   90  A    between atoms: _220  and  _221
REMARK   91  A    between atoms: _226  and  _228
REMARK   92  A    between atoms: _228  and  _229
REMARK   93  A    between atoms: _228  and  _231
REMARK   94  A    between atoms: _231  and  _232
REMARK   95  A    between atoms: _232  and  _233
REMARK   96  A    between atoms: _233  and  _234
REMARK   97  A    between atoms: _243  and  _245
REMARK   98  A    between atoms: _245  and  _246
REMARK   99  A    between atoms: _245  and  _248
REMARK  100  A    between atoms: _248  and  _249
REMARK  101  A    between atoms: _252  and  _254
REMARK  102  A    between atoms: _254  and  _255
REMARK  103  A    between atoms: _254  and  _257
REMARK  104  A    between atoms: _257  and  _258
REMARK  105  A    between atoms: _258  and  _259
REMARK  106  A    between atoms: _264  and  _266
REMARK  107  A    between atoms: _266  and  _267
REMARK  108  A    between atoms: _266  and  _269
REMARK  109  A    between atoms: _269  and  _270
REMARK  110  A    between atoms: _273  and  _275
REMARK  111  A    between atoms: _275  and  _276
REMARK  112  A    between atoms: _275  and  _278
REMARK  113  A    between atoms: _278  and  _279
REMARK  114  A    between atoms: _279  and  _280
REMARK  115  A    between atoms: _285  and  _287
REMARK  116  A    between atoms: _287  and  _288
REMARK  117  A    between atoms: _287  and  _290
REMARK  118  A    between atoms: _290  and  _291
REMARK  119  A    between atoms: _294  and  _296
REMARK  120  A    between atoms: _296  and  _297
REMARK  121  A    between atoms: _296  and  _299
REMARK  122  A    between atoms: _299  and  _300
REMARK  123  A    between atoms: _306  and  _308
REMARK  124  A    between atoms: _308  and  _309
REMARK  125  A    between atoms: _308  and  _311
REMARK  126  A    between atoms: _311  and  _312
REMARK  127  A    between atoms: _315  and  _317
REMARK  128  A    between atoms: _317  and  _318
REMARK  129  A    between atoms: _317  and  _320
REMARK  130  A    between atoms: _323  and  _325
REMARK  131  A    between atoms: _325  and  _326
REMARK  132  A    between atoms: _325  and  _328
REMARK  133  A    between atoms: _328  and  _329
REMARK  134  A    between atoms: _334  and  _336
REMARK  135  A    between atoms: _347  and  _350
REMARK  136  A    between atoms: _350  and  _351
REMARK  137  A    between atoms: _351  and  _352
REMARK  138  A    between atoms: _357  and  _360
REMARK  139  A    between atoms: _360  and  _361
REMARK  140  A    between atoms: _371  and  _372
REMARK  141  A    between atoms: _380  and  _382
REMARK  142  A    between atoms: _382  and  _383
REMARK  143  A    between atoms: _382  and  _385
REMARK  144  A    between atoms: _385  and  _386
REMARK  145  A    between atoms: _389  and  _391
REMARK  146  A    between atoms: _391  and  _392
REMARK  147  A    between atoms: _391  and  _394
REMARK  148  A    between atoms: _394  and  _395
REMARK  149  A    between atoms: _400  and  _401
REMARK  150  A    between atoms: _403  and  _405
REMARK  151  A    between atoms: _405  and  _406
REMARK  152  A    between atoms: _405  and  _408
REMARK  153  A    between atoms: _408  and  _409
REMARK  154  A    between atoms: _415  and  _417
REMARK  155  A    between atoms: _417  and  _418
REMARK  156  A    between atoms: _417  and  _420
REMARK  157  A    between atoms: _420  and  _421
REMARK  158  A    between atoms: _426  and  _427
REMARK  159  A    between atoms: _429  and  _431
REMARK  160  A    between atoms: _431  and  _432
REMARK  161  A    between atoms: _431  and  _434
REMARK  162  A    between atoms: _434  and  _435
REMARK  163  A    between atoms: _435  and  _436
REMARK  164  A    between atoms: _436  and  _437
REMARK  165  A    between atoms: _446  and  _448
REMARK  166  A    between atoms: _448  and  _449
REMARK  167  A    between atoms: _448  and  _451
REMARK  168  A    between atoms: _451  and  _452
REMARK  169  A    between atoms: _455  and  _457
REMARK  170  A    between atoms: _457  and  _458
REMARK  171  A    between atoms: _460  and  _462
REMARK  172  A    between atoms: _462  and  _463
REMARK  173  A    between atoms: _462  and  _465
REMARK  174  A    between atoms: _465  and  _466
REMARK  175  A    between atoms: _472  and  _473
REMARK  176  A    between atoms: _478  and  _480
REMARK  177  A    between atoms: _480  and  _481
REMARK  178  A    between atoms: _483  and  _485
REMARK  179  A    between atoms: _485  and  _486
REMARK  180  A    between atoms: _485  and  _488
REMARK  181  A    between atoms: _488  and  _489
REMARK  182  A    between atoms: _495  and  _497
REMARK  183  A    between atoms: _497  and  _498
REMARK  184  A    between atoms: _497  and  _500
REMARK  185  A    between atoms: _500  and  _501
REMARK  186  A    between atoms: _506  and  _508
REMARK  187  A    between atoms: _508  and  _509
REMARK  188  A    between atoms: _508  and  _511
REMARK  189  A    between atoms: _511  and  _512
REMARK  190  A    between atoms: _512  and  _513
REMARK  191  A    between atoms: _513  and  _514
REMARK  192  A    between atoms: _514  and  ZN_788
REMARK  193  A    between atoms: _516  and  _518
REMARK  194  A    between atoms: _518  and  _519
REMARK  195  A    between atoms: _522  and  _524
REMARK  196  A    between atoms: _524  and  _525
REMARK  197  A    between atoms: _527  and  _529
REMARK  198  A    between atoms: _529  and  _530
REMARK  199  A    between atoms: _529  and  _532
REMARK  200  A    between atoms: _532  and  _533
REMARK  201  A    between atoms: _536  and  _538
REMARK  202  A    between atoms: _538  and  _539
REMARK  203  A    between atoms: _538  and  _541
REMARK  204  A    between atoms: _544  and  _546
REMARK  205  A    between atoms: _546  and  _547
REMARK  206  A    between atoms: _546  and  _549
REMARK  207  A    between atoms: _549  and  _550
REMARK  208  A    between atoms: _552  and  _554
REMARK  209  A    between atoms: _554  and  _555
REMARK  210  A    between atoms: _554  and  _557
REMARK  211  A    between atoms: _557  and  _558
REMARK  212  A    between atoms: _561  and  _563
REMARK  213  A    between atoms: _563  and  _564
REMARK  214  A    between atoms: _563  and  _566
REMARK  215  A    between atoms: _566  and  _567
REMARK  216  A    between atoms: _570  and  _572
REMARK  217  A    between atoms: _572  and  _573
REMARK  218  A    between atoms: _572  and  _575
REMARK  219  A    between atoms: _575  and  _576
REMARK  220  A    between atoms: _576  and  _577
REMARK  221  A    between atoms: _577  and  _578
REMARK  222  A    between atoms: _578  and  _579
REMARK  223  A    between atoms: _583  and  _585
REMARK  224  A    between atoms: _585  and  _586
REMARK  225  A    between atoms: _585  and  _588
REMARK  226  A    between atoms: _588  and  _589
REMARK  227  A    between atoms: _595  and  _597
REMARK  228  A    between atoms: _597  and  _598
REMARK  229  A    between atoms: _597  and  _600
REMARK  230  A    between atoms: _600  and  _601
REMARK  231  A    between atoms: _607  and  _609
REMARK  232  A    between atoms: _609  and  _610
REMARK  233  A    between atoms: _613  and  _615
REMARK  234  A    between atoms: _615  and  _616
REMARK  235  A    between atoms: _615  and  _618
REMARK  236  A    between atoms: _618  and  _619
REMARK  237  A    between atoms: _619  and  _620
REMARK  238  A    between atoms: _622  and  _624
REMARK  239  A    between atoms: _624  and  _625
REMARK  240  A    between atoms: _624  and  _627
REMARK  241  A    between atoms: _627  and  _628
REMARK  242  A    between atoms: _628  and  _629
REMARK  243  A    between atoms: _629  and  _630
REMARK  244  A    between atoms: _630  and  _631
REMARK  245  A    between atoms: _635  and  _637
REMARK  246  A    between atoms: _637  and  _638
REMARK  247  A    between atoms: _637  and  _640
REMARK  248  A    between atoms: _640  and  _641
REMARK  249  A    between atoms: _646  and  _647
REMARK  250  A    between atoms: _649  and  _651
REMARK  251  A    between atoms: _651  and  _652
REMARK  252  A    between atoms: _651  and  _654
REMARK  253  A    between atoms: _654  and  _655
REMARK  254  A    between atoms: _660  and  _662
REMARK  255  A    between atoms: _662  and  _663
REMARK  256  A    between atoms: _662  and  _665
REMARK  257  A    between atoms: _665  and  _666
REMARK  258  A    between atoms: _669  and  _671
REMARK  259  A    between atoms: _671  and  _672
REMARK  260  A    between atoms: _675  and  _677
REMARK  261  A    between atoms: _677  and  _678
REMARK  262  A    between atoms: _677  and  _680
REMARK  263  A    between atoms: _680  and  _681
REMARK  264  A    between atoms: _684  and  _686
REMARK  265  A    between atoms: _686  and  _687
REMARK  266  A    between atoms: _686  and  _689
REMARK  267  A    between atoms: _692  and  _694
REMARK  268  A    between atoms: _694  and  _695
REMARK  269  A    between atoms: _694  and  _697
REMARK  270  A    between atoms: _697  and  _698
REMARK  271  A    between atoms: _698  and  _699
REMARK  272  A    between atoms: _702  and  _704
REMARK  273  A    between atoms: _704  and  _705
REMARK  274  A    between atoms: _704  and  _707
REMARK  275  A    between atoms: _707  and  _708
REMARK  276  A    between atoms: _713  and  _714
REMARK  277  A    between atoms: _716  and  _718
REMARK  278  A    between atoms: _718  and  _719
REMARK  279  A    between atoms: _718  and  _721
REMARK  280  A    between atoms: _721  and  _722
REMARK  281  A    between atoms: _722  and  _723
REMARK  282  A    between atoms: _723  and  _724
REMARK  283  A    between atoms: _733  and  _735
REMARK  284  A    between atoms: _735  and  _736
REMARK  285  A    between atoms: _735  and  _738
REMARK  286  A    between atoms: _738  and  _739
REMARK  287  A    between atoms: _744  and  _745
REMARK  288  A    between atoms: _747  and  _749
REMARK  289  A    between atoms: _749  and  _750
REMARK  290  A    between atoms: _749  and  _752
REMARK  291  A    between atoms: _752  and  _753
REMARK  292  A    between atoms: _756  and  _758
REMARK  293  A    between atoms: _758  and  _759
REMARK  294  A    between atoms: _758  and  _761
REMARK  295  A    between atoms: _761  and  _762
REMARK  296  A    between atoms: _764  and  _766
REMARK  297  A    between atoms: _766  and  _767
REMARK  298  A    between atoms: _766  and  _769
REMARK  299  A    between atoms: _769  and  _770
REMARK  300  A    between atoms: _776  and  _778
REMARK  301  A    between atoms: _778  and  _779
REMARK  302  A    between atoms: _778  and  _781
REMARK  303  A    between atoms: _781  and  _782
REMARK  304  A    between atoms: _782  and  _783
REMARK                            x       y       z     vdW  Elec       q    Type
REMARK                         _______ _______ _______ _____ _____    ______ ____
ROOT
ATOM      1  O   HOH     1      29.432  -8.052 -40.774  0.00  0.00    +0.000 OA
ENDROOT
TORSDOF 0
REMARK  Name = ../refined-set-2016/4ca8/4ca8_pocket.pdb
REMARK  304 active torsions:
REMARK  status: ('A' for Active; 'I' for Inactive)
REMARK    1  A    between atoms: _1  and  _3
REMARK    2  A    between atoms: _3  and  _4
REMARK    3  A    between atoms: _3  and  _6
REMARK    4  A    between atoms: _6  and  _7
REMARK    5  A    between atoms: _7  and  _8
REMARK    6  A    between atoms: _11  and  _13
REMARK    7  A    between atoms: _13  and  _14
REMARK    8  A    between atoms: _13  and  _16
REMARK    9  A    between atoms: _16  and  _17
REMARK   10  A    between atoms: _17  and  _18
REMARK   11  A    between atoms: _21  and  _23
REMARK   12  A    between atoms: _23  and  _24
REMARK   13  A    between atoms: _23  and  _26
REMARK   14  A    between atoms: _26  and  _27
REMARK   15  A    between atoms: _32  and  _34
REMARK   16  A    between atoms: _34  and  _35
REMARK   17  A    between atoms: _34  and  _37
REMARK   18  A    between atoms: _37  and  _38
REMARK   19  A    between atoms: _48  and  _50
REMARK   20  A    between atoms: _50  and  _51
REMARK   21  A    between atoms: _50  and  _53
REMARK   22  A    between atoms: _53  and  _54
REMARK   23  A    between atoms: _54  and  _55
REMARK   24  A    between atoms: _60  and  _62
REMARK   25  A    between atoms: _62  and  _63
REMARK   26  A    between atoms: _62  and  _65
REMARK   27  A    between atoms: _65  and  _66
REMARK   28  A    between atoms: _66  and  _67
REMARK   29  A    between atoms: _72  and  _74
REMARK   30  A    between atoms: _74  and  _75
REMARK   31  A    between atoms: _74  and  _77
REMARK   32  A    between atoms: _77  and  _78
REMARK   33  A    between atoms: _80  and  _82
REMARK   34  A    between atoms: _82  and  _83
REMARK   35  A    between atoms: _82  and  _85
REMARK   36  A    between atoms: _85  and  _86
REMARK   37  A    between atoms: _86  and  _87
REMARK   38  A    between atoms: _90  and  _92
REMARK   39  A    between atoms: _92  and  _93
REMARK   40  A    between atoms: _92  and  _95
REMARK   41  A    between atoms: _98  and  _100
REMARK   42  A    between atoms: _100  and  _101
REMARK   43  A    between atoms: _100  and  _103
REMARK   44  A    between atoms: _105  and  _107
REMARK   45  A    between atoms: _107  and  _108
REMARK   46  A    between atoms: _107  and  _110
REMARK   47  A    between atoms: _110  and  _111
REMARK   48  A    between atoms: _116  and  _118
REMARK   49  A    between atoms: _118  and  _119
REMARK   50  A    between atoms: _122  and  _124
REMARK   51  A    between atoms: _124  and  _125
REMARK   52  A    between atoms: _124  and  _127
REMARK   53  A    between atoms: _127  and  _128
REMARK   54  A    between atoms: _130  and  _132
REMARK   55  A    between atoms: _132  and  _133
REMARK   56  A    between atoms: _136  and  _138
REMARK   57  A    between atoms: _138  and  _139
REMARK   58  A    between atoms: _138  and  _141
REMARK   59  A    between atoms: _141  and  _142
REMARK   60  A    between atoms: _152  and  _154
REMARK   61  A    between atoms: _154  and  _155
REMARK   62  A    between atoms: _154  and  _157
REMARK   63  A    between atoms: _157  and  _158
REMARK   64  A    between atoms: _161  and  _163
REMARK   65  A    between atoms: _163  and  _164
REMARK   66  A    between atoms: _163  and  _166
REMARK   67  A    between atoms: _166  and  _167
REMARK   68  A    between atoms: _172  and  _173
REMARK   69  A    between atoms: _175  and  _177
REMARK   70  A    between atoms: _177  and  _178
REMARK   71  A    between atoms: _177  and  _180
REMARK   72  A    between atoms: _180  and  _181
REMARK   73  A    between atoms: _181  and  _182
REMARK   74  A    between atoms: _182  and  _183
REMARK   75  A    between atoms: _192  and  _194
REMARK   76  A    between atoms: _194  and  _195
REMARK   77  A    between atoms: _194  and  _197
REMARK   78  A    between atoms: _197  and  _198
REMARK   79  A    between atoms: _201  and  _203
REMARK   80  A    between atoms: _203  and  _204
REMARK   81  A    between atoms: _203  and  _206
REMARK   82  A    between atoms: _206  and  _207
REMARK   83  A    between atoms: _207  and  _208
REMARK   84  A    between atoms: _208  and  _209
REMARK   85  A    between atoms: _209  and  _210
REMARK   86  A    between atoms: _214  and  _216
REMARK   87  A    between atoms: _216  and  _217
REMARK   88  A    between atoms: _216  and  _219
REMARK   89  A    between atoms: _219  and  _220
REMARK   90  A    between atoms: _220  and  _221
REMARK   91  A    between atoms: _226  and  _228
REMARK   92  A    between atoms: _228  and  _229
REMARK   93  A    between atoms: _228  and  _231
REMARK   94  A    between atoms: _231  and  _232
REMARK   95  A    between atoms: _232  and  _233
REMARK   96  A    between atoms: _233  and  _234
REMARK   97  A    between atoms: _243  and  _245
REMARK   98  A    between atoms: _245  and  _246
REMARK   99  A    between atoms: _245  and  _248
REMARK  100  A    between atoms: _248  and  _249
REMARK  101  A    between atoms: _252  and  _254
REMARK  102  A    between atoms: _254  and  _255
REMARK  103  A    between atoms: _254  and  _257
REMARK  104  A    between atoms: _257  and  _258
REMARK  105  A    between atoms: _258  and  _259
REMARK  106  A    between atoms: _264  and  _266
REMARK  107  A    between atoms: _266  and  _267
REMARK  108  A    between atoms: _266  and  _269
REMARK  109  A    between atoms: _269  and  _270
REMARK  110  A    between atoms: _273  and  _275
REMARK  111  A    between atoms: _275  and  _276
REMARK  112  A    between atoms: _275  and  _278
REMARK  113  A    between atoms: _278  and  _279
REMARK  114  A    between atoms: _279  and  _280
REMARK  115  A    between atoms: _285  and  _287
REMARK  116  A    between atoms: _287  and  _288
REMARK  117  A    between atoms: _287  and  _290
REMARK  118  A    between atoms: _290  and  _291
REMARK  119  A    between atoms: _294  and  _296
REMARK  120  A    between atoms: _296  and  _297
REMARK  121  A    between atoms: _296  and  _299
REMARK  122  A    between atoms: _299  and  _300
REMARK  123  A    between atoms: _306  and  _308
REMARK  124  A    between atoms: _308  and  _309
REMARK  125  A    between atoms: _308  and  _311
REMARK  126  A    between atoms: _311  and  _312
REMARK  127  A    between atoms: _315  and  _317
REMARK  128  A    between atoms: _317  and  _318
REMARK  129  A    between atoms: _317  and  _320
REMARK  130  A    between atoms: _323  and  _325
REMARK  131  A    between atoms: _325  and  _326
REMARK  132  A    between atoms: _325  and  _328
REMARK  133  A    between atoms: _328  and  _329
REMARK  134  A    between atoms: _334  and  _336
REMARK  135  A    between atoms: _347  and  _350
REMARK  136  A    between atoms: _350  and  _351
REMARK  137  A    between atoms: _351  and  _352
REMARK  138  A    between atoms: _357  and  _360
REMARK  139  A    between atoms: _360  and  _361
REMARK  140  A    between atoms: _371  and  _372
REMARK  141  A    between atoms: _380  and  _382
REMARK  142  A    between atoms: _382  and  _383
REMARK  143  A    between atoms: _382  and  _385
REMARK  144  A    between atoms: _385  and  _386
REMARK  145  A    between atoms: _389  and  _391
REMARK  146  A    between atoms: _391  and  _392
REMARK  147  A    between atoms: _391  and  _394
REMARK  148  A    between atoms: _394  and  _395
REMARK  149  A    between atoms: _400  and  _401
REMARK  150  A    between atoms: _403  and  _405
REMARK  151  A    between atoms: _405  and  _406
REMARK  152  A    between atoms: _405  and  _408
REMARK  153  A    between atoms: _408  and  _409
REMARK  154  A    between atoms: _415  and  _417
REMARK  155  A    between atoms: _417  and  _418
REMARK  156  A    between atoms: _417  and  _420
REMARK  157  A    between atoms: _420  and  _421
REMARK  158  A    between atoms: _426  and  _427
REMARK  159  A    between atoms: _429  and  _431
REMARK  160  A    between atoms: _431  and  _432
REMARK  161  A    between atoms: _431  and  _434
REMARK  162  A    between atoms: _434  and  _435
REMARK  163  A    between atoms: _435  and  _436
REMARK  164  A    between atoms: _436  and  _437
REMARK  165  A    between atoms: _446  and  _448
REMARK  166  A    between atoms: _448  and  _449
REMARK  167  A    between atoms: _448  and  _451
REMARK  168  A    between atoms: _451  and  _452
REMARK  169  A    between atoms: _455  and  _457
REMARK  170  A    between atoms: _457  and  _458
REMARK  171  A    between atoms: _460  and  _462
REMARK  172  A    between atoms: _462  and  _463
REMARK  173  A    between atoms: _462  and  _465
REMARK  174  A    between atoms: _465  and  _466
REMARK  175  A    between atoms: _472  and  _473
REMARK  176  A    between atoms: _478  and  _480
REMARK  177  A    between atoms: _480  and  _481
REMARK  178  A    between atoms: _483  and  _485
REMARK  179  A    between atoms: _485  and  _486
REMARK  180  A    between atoms: _485  and  _488
REMARK  181  A    between atoms: _488  and  _489
REMARK  182  A    between atoms: _495  and  _497
REMARK  183  A    between atoms: _497  and  _498
REMARK  184  A    between atoms: _497  and  _500
REMARK  185  A    between atoms: _500  and  _501
REMARK  186  A    between atoms: _506  and  _508
REMARK  187  A    between atoms: _508  and  _509
REMARK  188  A    between atoms: _508  and  _511
REMARK  189  A    between atoms: _511  and  _512
REMARK  190  A    between atoms: _512  and  _513
REMARK  191  A    between atoms: _513  and  _514
REMARK  192  A    between atoms: _514  and  ZN_788
REMARK  193  A    between atoms: _516  and  _518
REMARK  194  A    between atoms: _518  and  _519
REMARK  195  A    between atoms: _522  and  _524
REMARK  196  A    between atoms: _524  and  _525
REMARK  197  A    between atoms: _527  and  _529
REMARK  198  A    between atoms: _529  and  _530
REMARK  199  A    between atoms: _529  and  _532
REMARK  200  A    between atoms: _532  and  _533
REMARK  201  A    between atoms: _536  and  _538
REMARK  202  A    between atoms: _538  and  _539
REMARK  203  A    between atoms: _538  and  _541
REMARK  204  A    between atoms: _544  and  _546
REMARK  205  A    between atoms: _546  and  _547
REMARK  206  A    between atoms: _546  and  _549
REMARK  207  A    between atoms: _549  and  _550
REMARK  208  A    between atoms: _552  and  _554
REMARK  209  A    between atoms: _554  and  _555
REMARK  210  A    between atoms: _554  and  _557
REMARK  211  A    between atoms: _557  and  _558
REMARK  212  A    between atoms: _561  and  _563
REMARK  213  A    between atoms: _563  and  _564
REMARK  214  A    between atoms: _563  and  _566
REMARK  215  A    between atoms: _566  and  _567
REMARK  216  A    between atoms: _570  and  _572
REMARK  217  A    between atoms: _572  and  _573
REMARK  218  A    between atoms: _572  and  _575
REMARK  219  A    between atoms: _575  and  _576
REMARK  220  A    between atoms: _576  and  _577
REMARK  221  A    between atoms: _577  and  _578
REMARK  222  A    between atoms: _578  and  _579
REMARK  223  A    between atoms: _583  and  _585
REMARK  224  A    between atoms: _585  and  _586
REMARK  225  A    between atoms: _585  and  _588
REMARK  226  A    between atoms: _588  and  _589
REMARK  227  A    between atoms: _595  and  _597
REMARK  228  A    between atoms: _597  and  _598
REMARK  229  A    between atoms: _597  and  _600
REMARK  230  A    between atoms: _600  and  _601
REMARK  231  A    between atoms: _607  and  _609
REMARK  232  A    between atoms: _609  and  _610
REMARK  233  A    between atoms: _613  and  _615
REMARK  234  A    between atoms: _615  and  _616
REMARK  235  A    between atoms: _615  and  _618
REMARK  236  A    between atoms: _618  and  _619
REMARK  237  A    between atoms: _619  and  _620
REMARK  238  A    between atoms: _622  and  _624
REMARK  239  A    between atoms: _624  and  _625
REMARK  240  A    between atoms: _624  and  _627
REMARK  241  A    between atoms: _627  and  _628
REMARK  242  A    between atoms: _628  and  _629
REMARK  243  A    between atoms: _629  and  _630
REMARK  244  A    between atoms: _630  and  _631
REMARK  245  A    between atoms: _635  and  _637
REMARK  246  A    between atoms: _637  and  _638
REMARK  247  A    between atoms: _637  and  _640
REMARK  248  A    between atoms: _640  and  _641
REMARK  249  A    between atoms: _646  and  _647
REMARK  250  A    between atoms: _649  and  _651
REMARK  251  A    between atoms: _651  and  _652
REMARK  252  A    between atoms: _651  and  _654
REMARK  253  A    between atoms: _654  and  _655
REMARK  254  A    between atoms: _660  and  _662
REMARK  255  A    between atoms: _662  and  _663
REMARK  256  A    between atoms: _662  and  _665
REMARK  257  A    between atoms: _665  and  _666
REMARK  258  A    between atoms: _669  and  _671
REMARK  259  A    between atoms: _671  and  _672
REMARK  260  A    between atoms: _675  and  _677
REMARK  261  A    between atoms: _677  and  _678
REMARK  262  A    between atoms: _677  and  _680
REMARK  263  A    between atoms: _680  and  _681
REMARK  264  A    between atoms: _684  and  _686
REMARK  265  A    between atoms: _686  and  _687
REMARK  266  A    between atoms: _686  and  _689
REMARK  267  A    between atoms: _692  and  _694
REMARK  268  A    between atoms: _694  and  _695
REMARK  269  A    between atoms: _694  and  _697
REMARK  270  A    between atoms: _697  and  _698
REMARK  271  A    between atoms: _698  and  _699
REMARK  272  A    between atoms: _702  and  _704
REMARK  273  A    between atoms: _704  and  _705
REMARK  274  A    between atoms: _704  and  _707
REMARK  275  A    between atoms: _707  and  _708
REMARK  276  A    between atoms: _713  and  _714
REMARK  277  A    between atoms: _716  and  _718
REMARK  278  A    between atoms: _718  and  _719
REMARK  279  A    between atoms: _718  and  _721
REMARK  280  A    between atoms: _721  and  _722
REMARK  281  A    between atoms: _722  and  _723
REMARK  282  A    between atoms: _723  and  _724
REMARK  283  A    between atoms: _733  and  _735
REMARK  284  A    between atoms: _735  and  _736
REMARK  285  A    between atoms: _735  and  _738
REMARK  286  A    between atoms: _738  and  _739
REMARK  287  A    between atoms: _744  and  _745
REMARK  288  A    between atoms: _747  and  _749
REMARK  289  A    between atoms: _749  and  _750
REMARK  290  A    between atoms: _749  and  _752
REMARK  291  A    between atoms: _752  and  _753
REMARK  292  A    between atoms: _756  and  _758
REMARK  293  A    between atoms: _758  and  _759
REMARK  294  A    between atoms: _758  and  _761
REMARK  295  A    between atoms: _761  and  _762
REMARK  296  A    between atoms: _764  and  _766
REMARK  297  A    between atoms: _766  and  _767
REMARK  298  A    between atoms: _766  and  _769
REMARK  299  A    between atoms: _769  and  _770
REMARK  300  A    between atoms: _776  and  _778
REMARK  301  A    between atoms: _778  and  _779
REMARK  302  A    between atoms: _778  and  _781
REMARK  303  A    between atoms: _781  and  _782
REMARK  304  A    between atoms: _782  and  _783
REMARK                            x       y       z     vdW  Elec       q    Type
REMARK                         _______ _______ _______ _____ _____    ______ ____
ROOT
ATOM      1  O   HOH     1      33.138  -7.415 -46.039  0.00  0.00    +0.000 OA
ENDROOT
TORSDOF 0
REMARK  Name = ../refined-set-2016/4ca8/4ca8_pocket.pdb
REMARK  304 active torsions:
REMARK  status: ('A' for Active; 'I' for Inactive)
REMARK    1  A    between atoms: _1  and  _3
REMARK    2  A    between atoms: _3  and  _4
REMARK    3  A    between atoms: _3  and  _6
REMARK    4  A    between atoms: _6  and  _7
REMARK    5  A    between atoms: _7  and  _8
REMARK    6  A    between atoms: _11  and  _13
REMARK    7  A    between atoms: _13  and  _14
REMARK    8  A    between atoms: _13  and  _16
REMARK    9  A    between atoms: _16  and  _17
REMARK   10  A    between atoms: _17  and  _18
REMARK   11  A    between atoms: _21  and  _23
REMARK   12  A    between atoms: _23  and  _24
REMARK   13  A    between atoms: _23  and  _26
REMARK   14  A    between atoms: _26  and  _27
REMARK   15  A    between atoms: _32  and  _34
REMARK   16  A    between atoms: _34  and  _35
REMARK   17  A    between atoms: _34  and  _37
REMARK   18  A    between atoms: _37  and  _38
REMARK   19  A    between atoms: _48  and  _50
REMARK   20  A    between atoms: _50  and  _51
REMARK   21  A    between atoms: _50  and  _53
REMARK   22  A    between atoms: _53  and  _54
REMARK   23  A    between atoms: _54  and  _55
REMARK   24  A    between atoms: _60  and  _62
REMARK   25  A    between atoms: _62  and  _63
REMARK   26  A    between atoms: _62  and  _65
REMARK   27  A    between atoms: _65  and  _66
REMARK   28  A    between atoms: _66  and  _67
REMARK   29  A    between atoms: _72  and  _74
REMARK   30  A    between atoms: _74  and  _75
REMARK   31  A    between atoms: _74  and  _77
REMARK   32  A    between atoms: _77  and  _78
REMARK   33  A    between atoms: _80  and  _82
REMARK   34  A    between atoms: _82  and  _83
REMARK   35  A    between atoms: _82  and  _85
REMARK   36  A    between atoms: _85  and  _86
REMARK   37  A    between atoms: _86  and  _87
REMARK   38  A    between atoms: _90  and  _92
REMARK   39  A    between atoms: _92  and  _93
REMARK   40  A    between atoms: _92  and  _95
REMARK   41  A    between atoms: _98  and  _100
REMARK   42  A    between atoms: _100  and  _101
REMARK   43  A    between atoms: _100  and  _103
REMARK   44  A    between atoms: _105  and  _107
REMARK   45  A    between atoms: _107  and  _108
REMARK   46  A    between atoms: _107  and  _110
REMARK   47  A    between atoms: _110  and  _111
REMARK   48  A    between atoms: _116  and  _118
REMARK   49  A    between atoms: _118  and  _119
REMARK   50  A    between atoms: _122  and  _124
REMARK   51  A    between atoms: _124  and  _125
REMARK   52  A    between atoms: _124  and  _127
REMARK   53  A    between atoms: _127  and  _128
REMARK   54  A    between atoms: _130  and  _132
REMARK   55  A    between atoms: _132  and  _133
REMARK   56  A    between atoms: _136  and  _138
REMARK   57  A    between atoms: _138  and  _139
REMARK   58  A    between atoms: _138  and  _141
REMARK   59  A    between atoms: _141  and  _142
REMARK   60  A    between atoms: _152  and  _154
REMARK   61  A    between atoms: _154  and  _155
REMARK   62  A    between atoms: _154  and  _157
REMARK   63  A    between atoms: _157  and  _158
REMARK   64  A    between atoms: _161  and  _163
REMARK   65  A    between atoms: _163  and  _164
REMARK   66  A    between atoms: _163  and  _166
REMARK   67  A    between atoms: _166  and  _167
REMARK   68  A    between atoms: _172  and  _173
REMARK   69  A    between atoms: _175  and  _177
REMARK   70  A    between atoms: _177  and  _178
REMARK   71  A    between atoms: _177  and  _180
REMARK   72  A    between atoms: _180  and  _181
REMARK   73  A    between atoms: _181  and  _182
REMARK   74  A    between atoms: _182  and  _183
REMARK   75  A    between atoms: _192  and  _194
REMARK   76  A    between atoms: _194  and  _195
REMARK   77  A    between atoms: _194  and  _197
REMARK   78  A    between atoms: _197  and  _198
REMARK   79  A    between atoms: _201  and  _203
REMARK   80  A    between atoms: _203  and  _204
REMARK   81  A    between atoms: _203  and  _206
REMARK   82  A    between atoms: _206  and  _207
REMARK   83  A    between atoms: _207  and  _208
REMARK   84  A    between atoms: _208  and  _209
REMARK   85  A    between atoms: _209  and  _210
REMARK   86  A    between atoms: _214  and  _216
REMARK   87  A    between atoms: _216  and  _217
REMARK   88  A    between atoms: _216  and  _219
REMARK   89  A    between atoms: _219  and  _220
REMARK   90  A    between atoms: _220  and  _221
REMARK   91  A    between atoms: _226  and  _228
REMARK   92  A    between atoms: _228  and  _229
REMARK   93  A    between atoms: _228  and  _231
REMARK   94  A    between atoms: _231  and  _232
REMARK   95  A    between atoms: _232  and  _233
REMARK   96  A    between atoms: _233  and  _234
REMARK   97  A    between atoms: _243  and  _245
REMARK   98  A    between atoms: _245  and  _246
REMARK   99  A    between atoms: _245  and  _248
REMARK  100  A    between atoms: _248  and  _249
REMARK  101  A    between atoms: _252  and  _254
REMARK  102  A    between atoms: _254  and  _255
REMARK  103  A    between atoms: _254  and  _257
REMARK  104  A    between atoms: _257  and  _258
REMARK  105  A    between atoms: _258  and  _259
REMARK  106  A    between atoms: _264  and  _266
REMARK  107  A    between atoms: _266  and  _267
REMARK  108  A    between atoms: _266  and  _269
REMARK  109  A    between atoms: _269  and  _270
REMARK  110  A    between atoms: _273  and  _275
REMARK  111  A    between atoms: _275  and  _276
REMARK  112  A    between atoms: _275  and  _278
REMARK  113  A    between atoms: _278  and  _279
REMARK  114  A    between atoms: _279  and  _280
REMARK  115  A    between atoms: _285  and  _287
REMARK  116  A    between atoms: _287  and  _288
REMARK  117  A    between atoms: _287  and  _290
REMARK  118  A    between atoms: _290  and  _291
REMARK  119  A    between atoms: _294  and  _296
REMARK  120  A    between atoms: _296  and  _297
REMARK  121  A    between atoms: _296  and  _299
REMARK  122  A    between atoms: _299  and  _300
REMARK  123  A    between atoms: _306  and  _308
REMARK  124  A    between atoms: _308  and  _309
REMARK  125  A    between atoms: _308  and  _311
REMARK  126  A    between atoms: _311  and  _312
REMARK  127  A    between atoms: _315  and  _317
REMARK  128  A    between atoms: _317  and  _318
REMARK  129  A    between atoms: _317  and  _320
REMARK  130  A    between atoms: _323  and  _325
REMARK  131  A    between atoms: _325  and  _326
REMARK  132  A    between atoms: _325  and  _328
REMARK  133  A    between atoms: _328  and  _329
REMARK  134  A    between atoms: _334  and  _336
REMARK  135  A    between atoms: _347  and  _350
REMARK  136  A    between atoms: _350  and  _351
REMARK  137  A    between atoms: _351  and  _352
REMARK  138  A    between atoms: _357  and  _360
REMARK  139  A    between atoms: _360  and  _361
REMARK  140  A    between atoms: _371  and  _372
REMARK  141  A    between atoms: _380  and  _382
REMARK  142  A    between atoms: _382  and  _383
REMARK  143  A    between atoms: _382  and  _385
REMARK  144  A    between atoms: _385  and  _386
REMARK  145  A    between atoms: _389  and  _391
REMARK  146  A    between atoms: _391  and  _392
REMARK  147  A    between atoms: _391  and  _394
REMARK  148  A    between atoms: _394  and  _395
REMARK  149  A    between atoms: _400  and  _401
REMARK  150  A    between atoms: _403  and  _405
REMARK  151  A    between atoms: _405  and  _406
REMARK  152  A    between atoms: _405  and  _408
REMARK  153  A    between atoms: _408  and  _409
REMARK  154  A    between atoms: _415  and  _417
REMARK  155  A    between atoms: _417  and  _418
REMARK  156  A    between atoms: _417  and  _420
REMARK  157  A    between atoms: _420  and  _421
REMARK  158  A    between atoms: _426  and  _427
REMARK  159  A    between atoms: _429  and  _431
REMARK  160  A    between atoms: _431  and  _432
REMARK  161  A    between atoms: _431  and  _434
REMARK  162  A    between atoms: _434  and  _435
REMARK  163  A    between atoms: _435  and  _436
REMARK  164  A    between atoms: _436  and  _437
REMARK  165  A    between atoms: _446  and  _448
REMARK  166  A    between atoms: _448  and  _449
REMARK  167  A    between atoms: _448  and  _451
REMARK  168  A    between atoms: _451  and  _452
REMARK  169  A    between atoms: _455  and  _457
REMARK  170  A    between atoms: _457  and  _458
REMARK  171  A    between atoms: _460  and  _462
REMARK  172  A    between atoms: _462  and  _463
REMARK  173  A    between atoms: _462  and  _465
REMARK  174  A    between atoms: _465  and  _466
REMARK  175  A    between atoms: _472  and  _473
REMARK  176  A    between atoms: _478  and  _480
REMARK  177  A    between atoms: _480  and  _481
REMARK  178  A    between atoms: _483  and  _485
REMARK  179  A    between atoms: _485  and  _486
REMARK  180  A    between atoms: _485  and  _488
REMARK  181  A    between atoms: _488  and  _489
REMARK  182  A    between atoms: _495  and  _497
REMARK  183  A    between atoms: _497  and  _498
REMARK  184  A    between atoms: _497  and  _500
REMARK  185  A    between atoms: _500  and  _501
REMARK  186  A    between atoms: _506  and  _508
REMARK  187  A    between atoms: _508  and  _509
REMARK  188  A    between atoms: _508  and  _511
REMARK  189  A    between atoms: _511  and  _512
REMARK  190  A    between atoms: _512  and  _513
REMARK  191  A    between atoms: _513  and  _514
REMARK  192  A    between atoms: _514  and  ZN_788
REMARK  193  A    between atoms: _516  and  _518
REMARK  194  A    between atoms: _518  and  _519
REMARK  195  A    between atoms: _522  and  _524
REMARK  196  A    between atoms: _524  and  _525
REMARK  197  A    between atoms: _527  and  _529
REMARK  198  A    between atoms: _529  and  _530
REMARK  199  A    between atoms: _529  and  _532
REMARK  200  A    between atoms: _532  and  _533
REMARK  201  A    between atoms: _536  and  _538
REMARK  202  A    between atoms: _538  and  _539
REMARK  203  A    between atoms: _538  and  _541
REMARK  204  A    between atoms: _544  and  _546
REMARK  205  A    between atoms: _546  and  _547
REMARK  206  A    between atoms: _546  and  _549
REMARK  207  A    between atoms: _549  and  _550
REMARK  208  A    between atoms: _552  and  _554
REMARK  209  A    between atoms: _554  and  _555
REMARK  210  A    between atoms: _554  and  _557
REMARK  211  A    between atoms: _557  and  _558
REMARK  212  A    between atoms: _561  and  _563
REMARK  213  A    between atoms: _563  and  _564
REMARK  214  A    between atoms: _563  and  _566
REMARK  215  A    between atoms: _566  and  _567
REMARK  216  A    between atoms: _570  and  _572
REMARK  217  A    between atoms: _572  and  _573
REMARK  218  A    between atoms: _572  and  _575
REMARK  219  A    between atoms: _575  and  _576
REMARK  220  A    between atoms: _576  and  _577
REMARK  221  A    between atoms: _577  and  _578
REMARK  222  A    between atoms: _578  and  _579
REMARK  223  A    between atoms: _583  and  _585
REMARK  224  A    between atoms: _585  and  _586
REMARK  225  A    between atoms: _585  and  _588
REMARK  226  A    between atoms: _588  and  _589
REMARK  227  A    between atoms: _595  and  _597
REMARK  228  A    between atoms: _597  and  _598
REMARK  229  A    between atoms: _597  and  _600
REMARK  230  A    between atoms: _600  and  _601
REMARK  231  A    between atoms: _607  and  _609
REMARK  232  A    between atoms: _609  and  _610
REMARK  233  A    between atoms: _613  and  _615
REMARK  234  A    between atoms: _615  and  _616
REMARK  235  A    between atoms: _615  and  _618
REMARK  236  A    between atoms: _618  and  _619
REMARK  237  A    between atoms: _619  and  _620
REMARK  238  A    between atoms: _622  and  _624
REMARK  239  A    between atoms: _624  and  _625
REMARK  240  A    between atoms: _624  and  _627
REMARK  241  A    between atoms: _627  and  _628
REMARK  242  A    between atoms: _628  and  _629
REMARK  243  A    between atoms: _629  and  _630
REMARK  244  A    between atoms: _630  and  _631
REMARK  245  A    between atoms: _635  and  _637
REMARK  246  A    between atoms: _637  and  _638
REMARK  247  A    between atoms: _637  and  _640
REMARK  248  A    between atoms: _640  and  _641
REMARK  249  A    between atoms: _646  and  _647
REMARK  250  A    between atoms: _649  and  _651
REMARK  251  A    between atoms: _651  and  _652
REMARK  252  A    between atoms: _651  and  _654
REMARK  253  A    between atoms: _654  and  _655
REMARK  254  A    between atoms: _660  and  _662
REMARK  255  A    between atoms: _662  and  _663
REMARK  256  A    between atoms: _662  and  _665
REMARK  257  A    between atoms: _665  and  _666
REMARK  258  A    between atoms: _669  and  _671
REMARK  259  A    between atoms: _671  and  _672
REMARK  260  A    between atoms: _675  and  _677
REMARK  261  A    between atoms: _677  and  _678
REMARK  262  A    between atoms: _677  and  _680
REMARK  263  A    between atoms: _680  and  _681
REMARK  264  A    between atoms: _684  and  _686
REMARK  265  A    between atoms: _686  and  _687
REMARK  266  A    between atoms: _686  and  _689
REMARK  267  A    between atoms: _692  and  _694
REMARK  268  A    between atoms: _694  and  _695
REMARK  269  A    between atoms: _694  and  _697
REMARK  270  A    between atoms: _697  and  _698
REMARK  271  A    between atoms: _698  and  _699
REMARK  272  A    between atoms: _702  and  _704
REMARK  273  A    between atoms: _704  and  _705
REMARK  274  A    between atoms: _704  and  _707
REMARK  275  A    between atoms: _707  and  _708
REMARK  276  A    between atoms: _713  and  _714
REMARK  277  A    between atoms: _716  and  _718
REMARK  278  A    between atoms: _718  and  _719
REMARK  279  A    between atoms: _718  and  _721
REMARK  280  A    between atoms: _721  and  _722
REMARK  281  A    between atoms: _722  and  _723
REMARK  282  A    between atoms: _723  and  _724
REMARK  283  A    between atoms: _733  and  _735
REMARK  284  A    between atoms: _735  and  _736
REMARK  285  A    between atoms: _735  and  _738
REMARK  286  A    between atoms: _738  and  _739
REMARK  287  A    between atoms: _744  and  _745
REMARK  288  A    between atoms: _747  and  _749
REMARK  289  A    between atoms: _749  and  _750
REMARK  290  A    between atoms: _749  and  _752
REMARK  291  A    between atoms: _752  and  _753
REMARK  292  A    between atoms: _756  and  _758
REMARK  293  A    between atoms: _758  and  _759
REMARK  294  A    between atoms: _758  and  _761
REMARK  295  A    between atoms: _761  and  _762
REMARK  296  A    between atoms: _764  and  _766
REMARK  297  A    between atoms: _766  and  _767
REMARK  298  A    between atoms: _766  and  _769
REMARK  299  A    between atoms: _769  and  _770
REMARK  300  A    between atoms: _776  and  _778
REMARK  301  A    between atoms: _778  and  _779
REMARK  302  A    between atoms: _778  and  _781
REMARK  303  A    between atoms: _781  and  _782
REMARK  304  A    between atoms: _782  and  _783
REMARK                            x       y       z     vdW  Elec       q    Type
REMARK                         _______ _______ _______ _____ _____    ______ ____
ROOT
ATOM      1  O   HOH     1      32.241  -9.471 -44.692  0.00  0.00    +0.000 OA
ENDROOT
TORSDOF 0
REMARK  Name = ../refined-set-2016/4ca8/4ca8_pocket.pdb
REMARK  304 active torsions:
REMARK  status: ('A' for Active; 'I' for Inactive)
REMARK    1  A    between atoms: _1  and  _3
REMARK    2  A    between atoms: _3  and  _4
REMARK    3  A    between atoms: _3  and  _6
REMARK    4  A    between atoms: _6  and  _7
REMARK    5  A    between atoms: _7  and  _8
REMARK    6  A    between atoms: _11  and  _13
REMARK    7  A    between atoms: _13  and  _14
REMARK    8  A    between atoms: _13  and  _16
REMARK    9  A    between atoms: _16  and  _17
REMARK   10  A    between atoms: _17  and  _18
REMARK   11  A    between atoms: _21  and  _23
REMARK   12  A    between atoms: _23  and  _24
REMARK   13  A    between atoms: _23  and  _26
REMARK   14  A    between atoms: _26  and  _27
REMARK   15  A    between atoms: _32  and  _34
REMARK   16  A    between atoms: _34  and  _35
REMARK   17  A    between atoms: _34  and  _37
REMARK   18  A    between atoms: _37  and  _38
REMARK   19  A    between atoms: _48  and  _50
REMARK   20  A    between atoms: _50  and  _51
REMARK   21  A    between atoms: _50  and  _53
REMARK   22  A    between atoms: _53  and  _54
REMARK   23  A    between atoms: _54  and  _55
REMARK   24  A    between atoms: _60  and  _62
REMARK   25  A    between atoms: _62  and  _63
REMARK   26  A    between atoms: _62  and  _65
REMARK   27  A    between atoms: _65  and  _66
REMARK   28  A    between atoms: _66  and  _67
REMARK   29  A    between atoms: _72  and  _74
REMARK   30  A    between atoms: _74  and  _75
REMARK   31  A    between atoms: _74  and  _77
REMARK   32  A    between atoms: _77  and  _78
REMARK   33  A    between atoms: _80  and  _82
REMARK   34  A    between atoms: _82  and  _83
REMARK   35  A    between atoms: _82  and  _85
REMARK   36  A    between atoms: _85  and  _86
REMARK   37  A    between atoms: _86  and  _87
REMARK   38  A    between atoms: _90  and  _92
REMARK   39  A    between atoms: _92  and  _93
REMARK   40  A    between atoms: _92  and  _95
REMARK   41  A    between atoms: _98  and  _100
REMARK   42  A    between atoms: _100  and  _101
REMARK   43  A    between atoms: _100  and  _103
REMARK   44  A    between atoms: _105  and  _107
REMARK   45  A    between atoms: _107  and  _108
REMARK   46  A    between atoms: _107  and  _110
REMARK   47  A    between atoms: _110  and  _111
REMARK   48  A    between atoms: _116  and  _118
REMARK   49  A    between atoms: _118  and  _119
REMARK   50  A    between atoms: _122  and  _124
REMARK   51  A    between atoms: _124  and  _125
REMARK   52  A    between atoms: _124  and  _127
REMARK   53  A    between atoms: _127  and  _128
REMARK   54  A    between atoms: _130  and  _132
REMARK   55  A    between atoms: _132  and  _133
REMARK   56  A    between atoms: _136  and  _138
REMARK   57  A    between atoms: _138  and  _139
REMARK   58  A    between atoms: _138  and  _141
REMARK   59  A    between atoms: _141  and  _142
REMARK   60  A    between atoms: _152  and  _154
REMARK   61  A    between atoms: _154  and  _155
REMARK   62  A    between atoms: _154  and  _157
REMARK   63  A    between atoms: _157  and  _158
REMARK   64  A    between atoms: _161  and  _163
REMARK   65  A    between atoms: _163  and  _164
REMARK   66  A    between atoms: _163  and  _166
REMARK   67  A    between atoms: _166  and  _167
REMARK   68  A    between atoms: _172  and  _173
REMARK   69  A    between atoms: _175  and  _177
REMARK   70  A    between atoms: _177  and  _178
REMARK   71  A    between atoms: _177  and  _180
REMARK   72  A    between atoms: _180  and  _181
REMARK   73  A    between atoms: _181  and  _182
REMARK   74  A    between atoms: _182  and  _183
REMARK   75  A    between atoms: _192  and  _194
REMARK   76  A    between atoms: _194  and  _195
REMARK   77  A    between atoms: _194  and  _197
REMARK   78  A    between atoms: _197  and  _198
REMARK   79  A    between atoms: _201  and  _203
REMARK   80  A    between atoms: _203  and  _204
REMARK   81  A    between atoms: _203  and  _206
REMARK   82  A    between atoms: _206  and  _207
REMARK   83  A    between atoms: _207  and  _208
REMARK   84  A    between atoms: _208  and  _209
REMARK   85  A    between atoms: _209  and  _210
REMARK   86  A    between atoms: _214  and  _216
REMARK   87  A    between atoms: _216  and  _217
REMARK   88  A    between atoms: _216  and  _219
REMARK   89  A    between atoms: _219  and  _220
REMARK   90  A    between atoms: _220  and  _221
REMARK   91  A    between atoms: _226  and  _228
REMARK   92  A    between atoms: _228  and  _229
REMARK   93  A    between atoms: _228  and  _231
REMARK   94  A    between atoms: _231  and  _232
REMARK   95  A    between atoms: _232  and  _233
REMARK   96  A    between atoms: _233  and  _234
REMARK   97  A    between atoms: _243  and  _245
REMARK   98  A    between atoms: _245  and  _246
REMARK   99  A    between atoms: _245  and  _248
REMARK  100  A    between atoms: _248  and  _249
REMARK  101  A    between atoms: _252  and  _254
REMARK  102  A    between atoms: _254  and  _255
REMARK  103  A    between atoms: _254  and  _257
REMARK  104  A    between atoms: _257  and  _258
REMARK  105  A    between atoms: _258  and  _259
REMARK  106  A    between atoms: _264  and  _266
REMARK  107  A    between atoms: _266  and  _267
REMARK  108  A    between atoms: _266  and  _269
REMARK  109  A    between atoms: _269  and  _270
REMARK  110  A    between atoms: _273  and  _275
REMARK  111  A    between atoms: _275  and  _276
REMARK  112  A    between atoms: _275  and  _278
REMARK  113  A    between atoms: _278  and  _279
REMARK  114  A    between atoms: _279  and  _280
REMARK  115  A    between atoms: _285  and  _287
REMARK  116  A    between atoms: _287  and  _288
REMARK  117  A    between atoms: _287  and  _290
REMARK  118  A    between atoms: _290  and  _291
REMARK  119  A    between atoms: _294  and  _296
REMARK  120  A    between atoms: _296  and  _297
REMARK  121  A    between atoms: _296  and  _299
REMARK  122  A    between atoms: _299  and  _300
REMARK  123  A    between atoms: _306  and  _308
REMARK  124  A    between atoms: _308  and  _309
REMARK  125  A    between atoms: _308  and  _311
REMARK  126  A    between atoms: _311  and  _312
REMARK  127  A    between atoms: _315  and  _317
REMARK  128  A    between atoms: _317  and  _318
REMARK  129  A    between atoms: _317  and  _320
REMARK  130  A    between atoms: _323  and  _325
REMARK  131  A    between atoms: _325  and  _326
REMARK  132  A    between atoms: _325  and  _328
REMARK  133  A    between atoms: _328  and  _329
REMARK  134  A    between atoms: _334  and  _336
REMARK  135  A    between atoms: _347  and  _350
REMARK  136  A    between atoms: _350  and  _351
REMARK  137  A    between atoms: _351  and  _352
REMARK  138  A    between atoms: _357  and  _360
REMARK  139  A    between atoms: _360  and  _361
REMARK  140  A    between atoms: _371  and  _372
REMARK  141  A    between atoms: _380  and  _382
REMARK  142  A    between atoms: _382  and  _383
REMARK  143  A    between atoms: _382  and  _385
REMARK  144  A    between atoms: _385  and  _386
REMARK  145  A    between atoms: _389  and  _391
REMARK  146  A    between atoms: _391  and  _392
REMARK  147  A    between atoms: _391  and  _394
REMARK  148  A    between atoms: _394  and  _395
REMARK  149  A    between atoms: _400  and  _401
REMARK  150  A    between atoms: _403  and  _405
REMARK  151  A    between atoms: _405  and  _406
REMARK  152  A    between atoms: _405  and  _408
REMARK  153  A    between atoms: _408  and  _409
REMARK  154  A    between atoms: _415  and  _417
REMARK  155  A    between atoms: _417  and  _418
REMARK  156  A    between atoms: _417  and  _420
REMARK  157  A    between atoms: _420  and  _421
REMARK  158  A    between atoms: _426  and  _427
REMARK  159  A    between atoms: _429  and  _431
REMARK  160  A    between atoms: _431  and  _432
REMARK  161  A    between atoms: _431  and  _434
REMARK  162  A    between atoms: _434  and  _435
REMARK  163  A    between atoms: _435  and  _436
REMARK  164  A    between atoms: _436  and  _437
REMARK  165  A    between atoms: _446  and  _448
REMARK  166  A    between atoms: _448  and  _449
REMARK  167  A    between atoms: _448  and  _451
REMARK  168  A    between atoms: _451  and  _452
REMARK  169  A    between atoms: _455  and  _457
REMARK  170  A    between atoms: _457  and  _458
REMARK  171  A    between atoms: _460  and  _462
REMARK  172  A    between atoms: _462  and  _463
REMARK  173  A    between atoms: _462  and  _465
REMARK  174  A    between atoms: _465  and  _466
REMARK  175  A    between atoms: _472  and  _473
REMARK  176  A    between atoms: _478  and  _480
REMARK  177  A    between atoms: _480  and  _481
REMARK  178  A    between atoms: _483  and  _485
REMARK  179  A    between atoms: _485  and  _486
REMARK  180  A    between atoms: _485  and  _488
REMARK  181  A    between atoms: _488  and  _489
REMARK  182  A    between atoms: _495  and  _497
REMARK  183  A    between atoms: _497  and  _498
REMARK  184  A    between atoms: _497  and  _500
REMARK  185  A    between atoms: _500  and  _501
REMARK  186  A    between atoms: _506  and  _508
REMARK  187  A    between atoms: _508  and  _509
REMARK  188  A    between atoms: _508  and  _511
REMARK  189  A    between atoms: _511  and  _512
REMARK  190  A    between atoms: _512  and  _513
REMARK  191  A    between atoms: _513  and  _514
REMARK  192  A    between atoms: _514  and  ZN_788
REMARK  193  A    between atoms: _516  and  _518
REMARK  194  A    between atoms: _518  and  _519
REMARK  195  A    between atoms: _522  and  _524
REMARK  196  A    between atoms: _524  and  _525
REMARK  197  A    between atoms: _527  and  _529
REMARK  198  A    between atoms: _529  and  _530
REMARK  199  A    between atoms: _529  and  _532
REMARK  200  A    between atoms: _532  and  _533
REMARK  201  A    between atoms: _536  and  _538
REMARK  202  A    between atoms: _538  and  _539
REMARK  203  A    between atoms: _538  and  _541
REMARK  204  A    between atoms: _544  and  _546
REMARK  205  A    between atoms: _546  and  _547
REMARK  206  A    between atoms: _546  and  _549
REMARK  207  A    between atoms: _549  and  _550
REMARK  208  A    between atoms: _552  and  _554
REMARK  209  A    between atoms: _554  and  _555
REMARK  210  A    between atoms: _554  and  _557
REMARK  211  A    between atoms: _557  and  _558
REMARK  212  A    between atoms: _561  and  _563
REMARK  213  A    between atoms: _563  and  _564
REMARK  214  A    between atoms: _563  and  _566
REMARK  215  A    between atoms: _566  and  _567
REMARK  216  A    between atoms: _570  and  _572
REMARK  217  A    between atoms: _572  and  _573
REMARK  218  A    between atoms: _572  and  _575
REMARK  219  A    between atoms: _575  and  _576
REMARK  220  A    between atoms: _576  and  _577
REMARK  221  A    between atoms: _577  and  _578
REMARK  222  A    between atoms: _578  and  _579
REMARK  223  A    between atoms: _583  and  _585
REMARK  224  A    between atoms: _585  and  _586
REMARK  225  A    between atoms: _585  and  _588
REMARK  226  A    between atoms: _588  and  _589
REMARK  227  A    between atoms: _595  and  _597
REMARK  228  A    between atoms: _597  and  _598
REMARK  229  A    between atoms: _597  and  _600
REMARK  230  A    between atoms: _600  and  _601
REMARK  231  A    between atoms: _607  and  _609
REMARK  232  A    between atoms: _609  and  _610
REMARK  233  A    between atoms: _613  and  _615
REMARK  234  A    between atoms: _615  and  _616
REMARK  235  A    between atoms: _615  and  _618
REMARK  236  A    between atoms: _618  and  _619
REMARK  237  A    between atoms: _619  and  _620
REMARK  238  A    between atoms: _622  and  _624
REMARK  239  A    between atoms: _624  and  _625
REMARK  240  A    between atoms: _624  and  _627
REMARK  241  A    between atoms: _627  and  _628
REMARK  242  A    between atoms: _628  and  _629
REMARK  243  A    between atoms: _629  and  _630
REMARK  244  A    between atoms: _630  and  _631
REMARK  245  A    between atoms: _635  and  _637
REMARK  246  A    between atoms: _637  and  _638
REMARK  247  A    between atoms: _637  and  _640
REMARK  248  A    between atoms: _640  and  _641
REMARK  249  A    between atoms: _646  and  _647
REMARK  250  A    between atoms: _649  and  _651
REMARK  251  A    between atoms: _651  and  _652
REMARK  252  A    between atoms: _651  and  _654
REMARK  253  A    between atoms: _654  and  _655
REMARK  254  A    between atoms: _660  and  _662
REMARK  255  A    between atoms: _662  and  _663
REMARK  256  A    between atoms: _662  and  _665
REMARK  257  A    between atoms: _665  and  _666
REMARK  258  A    between atoms: _669  and  _671
REMARK  259  A    between atoms: _671  and  _672
REMARK  260  A    between atoms: _675  and  _677
REMARK  261  A    between atoms: _677  and  _678
REMARK  262  A    between atoms: _677  and  _680
REMARK  263  A    between atoms: _680  and  _681
REMARK  264  A    between atoms: _684  and  _686
REMARK  265  A    between atoms: _686  and  _687
REMARK  266  A    between atoms: _686  and  _689
REMARK  267  A    between atoms: _692  and  _694
REMARK  268  A    between atoms: _694  and  _695
REMARK  269  A    between atoms: _694  and  _697
REMARK  270  A    between atoms: _697  and  _698
REMARK  271  A    between atoms: _698  and  _699
REMARK  272  A    between atoms: _702  and  _704
REMARK  273  A    between atoms: _704  and  _705
REMARK  274  A    between atoms: _704  and  _707
REMARK  275  A    between atoms: _707  and  _708
REMARK  276  A    between atoms: _713  and  _714
REMARK  277  A    between atoms: _716  and  _718
REMARK  278  A    between atoms: _718  and  _719
REMARK  279  A    between atoms: _718  and  _721
REMARK  280  A    between atoms: _721  and  _722
REMARK  281  A    between atoms: _722  and  _723
REMARK  282  A    between atoms: _723  and  _724
REMARK  283  A    between atoms: _733  and  _735
REMARK  284  A    between atoms: _735  and  _736
REMARK  285  A    between atoms: _735  and  _738
REMARK  286  A    between atoms: _738  and  _739
REMARK  287  A    between atoms: _744  and  _745
REMARK  288  A    between atoms: _747  and  _749
REMARK  289  A    between atoms: _749  and  _750
REMARK  290  A    between atoms: _749  and  _752
REMARK  291  A    between atoms: _752  and  _753
REMARK  292  A    between atoms: _756  and  _758
REMARK  293  A    between atoms: _758  and  _759
REMARK  294  A    between atoms: _758  and  _761
REMARK  295  A    between atoms: _761  and  _762
REMARK  296  A    between atoms: _764  and  _766
REMARK  297  A    between atoms: _766  and  _767
REMARK  298  A    between atoms: _766  and  _769
REMARK  299  A    between atoms: _769  and  _770
REMARK  300  A    between atoms: _776  and  _778
REMARK  301  A    between atoms: _778  and  _779
REMARK  302  A    between atoms: _778  and  _781
REMARK  303  A    between atoms: _781  and  _782
REMARK  304  A    between atoms: _782  and  _783
REMARK                            x       y       z     vdW  Elec       q    Type
REMARK                         _______ _______ _______ _____ _____    ______ ____
ROOT
ATOM      1  O   HOH     1      30.282  -6.556 -51.060  0.00  0.00    +0.000 OA
ENDROOT
TORSDOF 0
REMARK  Name = ../refined-set-2016/4ca8/4ca8_pocket.pdb
REMARK  304 active torsions:
REMARK  status: ('A' for Active; 'I' for Inactive)
REMARK    1  A    between atoms: _1  and  _3
REMARK    2  A    between atoms: _3  and  _4
REMARK    3  A    between atoms: _3  and  _6
REMARK    4  A    between atoms: _6  and  _7
REMARK    5  A    between atoms: _7  and  _8
REMARK    6  A    between atoms: _11  and  _13
REMARK    7  A    between atoms: _13  and  _14
REMARK    8  A    between atoms: _13  and  _16
REMARK    9  A    between atoms: _16  and  _17
REMARK   10  A    between atoms: _17  and  _18
REMARK   11  A    between atoms: _21  and  _23
REMARK   12  A    between atoms: _23  and  _24
REMARK   13  A    between atoms: _23  and  _26
REMARK   14  A    between atoms: _26  and  _27
REMARK   15  A    between atoms: _32  and  _34
REMARK   16  A    between atoms: _34  and  _35
REMARK   17  A    between atoms: _34  and  _37
REMARK   18  A    between atoms: _37  and  _38
REMARK   19  A    between atoms: _48  and  _50
REMARK   20  A    between atoms: _50  and  _51
REMARK   21  A    between atoms: _50  and  _53
REMARK   22  A    between atoms: _53  and  _54
REMARK   23  A    between atoms: _54  and  _55
REMARK   24  A    between atoms: _60  and  _62
REMARK   25  A    between atoms: _62  and  _63
REMARK   26  A    between atoms: _62  and  _65
REMARK   27  A    between atoms: _65  and  _66
REMARK   28  A    between atoms: _66  and  _67
REMARK   29  A    between atoms: _72  and  _74
REMARK   30  A    between atoms: _74  and  _75
REMARK   31  A    between atoms: _74  and  _77
REMARK   32  A    between atoms: _77  and  _78
REMARK   33  A    between atoms: _80  and  _82
REMARK   34  A    between atoms: _82  and  _83
REMARK   35  A    between atoms: _82  and  _85
REMARK   36  A    between atoms: _85  and  _86
REMARK   37  A    between atoms: _86  and  _87
REMARK   38  A    between atoms: _90  and  _92
REMARK   39  A    between atoms: _92  and  _93
REMARK   40  A    between atoms: _92  and  _95
REMARK   41  A    between atoms: _98  and  _100
REMARK   42  A    between atoms: _100  and  _101
REMARK   43  A    between atoms: _100  and  _103
REMARK   44  A    between atoms: _105  and  _107
REMARK   45  A    between atoms: _107  and  _108
REMARK   46  A    between atoms: _107  and  _110
REMARK   47  A    between atoms: _110  and  _111
REMARK   48  A    between atoms: _116  and  _118
REMARK   49  A    between atoms: _118  and  _119
REMARK   50  A    between atoms: _122  and  _124
REMARK   51  A    between atoms: _124  and  _125
REMARK   52  A    between atoms: _124  and  _127
REMARK   53  A    between atoms: _127  and  _128
REMARK   54  A    between atoms: _130  and  _132
REMARK   55  A    between atoms: _132  and  _133
REMARK   56  A    between atoms: _136  and  _138
REMARK   57  A    between atoms: _138  and  _139
REMARK   58  A    between atoms: _138  and  _141
REMARK   59  A    between atoms: _141  and  _142
REMARK   60  A    between atoms: _152  and  _154
REMARK   61  A    between atoms: _154  and  _155
REMARK   62  A    between atoms: _154  and  _157
REMARK   63  A    between atoms: _157  and  _158
REMARK   64  A    between atoms: _161  and  _163
REMARK   65  A    between atoms: _163  and  _164
REMARK   66  A    between atoms: _163  and  _166
REMARK   67  A    between atoms: _166  and  _167
REMARK   68  A    between atoms: _172  and  _173
REMARK   69  A    between atoms: _175  and  _177
REMARK   70  A    between atoms: _177  and  _178
REMARK   71  A    between atoms: _177  and  _180
REMARK   72  A    between atoms: _180  and  _181
REMARK   73  A    between atoms: _181  and  _182
REMARK   74  A    between atoms: _182  and  _183
REMARK   75  A    between atoms: _192  and  _194
REMARK   76  A    between atoms: _194  and  _195
REMARK   77  A    between atoms: _194  and  _197
REMARK   78  A    between atoms: _197  and  _198
REMARK   79  A    between atoms: _201  and  _203
REMARK   80  A    between atoms: _203  and  _204
REMARK   81  A    between atoms: _203  and  _206
REMARK   82  A    between atoms: _206  and  _207
REMARK   83  A    between atoms: _207  and  _208
REMARK   84  A    between atoms: _208  and  _209
REMARK   85  A    between atoms: _209  and  _210
REMARK   86  A    between atoms: _214  and  _216
REMARK   87  A    between atoms: _216  and  _217
REMARK   88  A    between atoms: _216  and  _219
REMARK   89  A    between atoms: _219  and  _220
REMARK   90  A    between atoms: _220  and  _221
REMARK   91  A    between atoms: _226  and  _228
REMARK   92  A    between atoms: _228  and  _229
REMARK   93  A    between atoms: _228  and  _231
REMARK   94  A    between atoms: _231  and  _232
REMARK   95  A    between atoms: _232  and  _233
REMARK   96  A    between atoms: _233  and  _234
REMARK   97  A    between atoms: _243  and  _245
REMARK   98  A    between atoms: _245  and  _246
REMARK   99  A    between atoms: _245  and  _248
REMARK  100  A    between atoms: _248  and  _249
REMARK  101  A    between atoms: _252  and  _254
REMARK  102  A    between atoms: _254  and  _255
REMARK  103  A    between atoms: _254  and  _257
REMARK  104  A    between atoms: _257  and  _258
REMARK  105  A    between atoms: _258  and  _259
REMARK  106  A    between atoms: _264  and  _266
REMARK  107  A    between atoms: _266  and  _267
REMARK  108  A    between atoms: _266  and  _269
REMARK  109  A    between atoms: _269  and  _270
REMARK  110  A    between atoms: _273  and  _275
REMARK  111  A    between atoms: _275  and  _276
REMARK  112  A    between atoms: _275  and  _278
REMARK  113  A    between atoms: _278  and  _279
REMARK  114  A    between atoms: _279  and  _280
REMARK  115  A    between atoms: _285  and  _287
REMARK  116  A    between atoms: _287  and  _288
REMARK  117  A    between atoms: _287  and  _290
REMARK  118  A    between atoms: _290  and  _291
REMARK  119  A    between atoms: _294  and  _296
REMARK  120  A    between atoms: _296  and  _297
REMARK  121  A    between atoms: _296  and  _299
REMARK  122  A    between atoms: _299  and  _300
REMARK  123  A    between atoms: _306  and  _308
REMARK  124  A    between atoms: _308  and  _309
REMARK  125  A    between atoms: _308  and  _311
REMARK  126  A    between atoms: _311  and  _312
REMARK  127  A    between atoms: _315  and  _317
REMARK  128  A    between atoms: _317  and  _318
REMARK  129  A    between atoms: _317  and  _320
REMARK  130  A    between atoms: _323  and  _325
REMARK  131  A    between atoms: _325  and  _326
REMARK  132  A    between atoms: _325  and  _328
REMARK  133  A    between atoms: _328  and  _329
REMARK  134  A    between atoms: _334  and  _336
REMARK  135  A    between atoms: _347  and  _350
REMARK  136  A    between atoms: _350  and  _351
REMARK  137  A    between atoms: _351  and  _352
REMARK  138  A    between atoms: _357  and  _360
REMARK  139  A    between atoms: _360  and  _361
REMARK  140  A    between atoms: _371  and  _372
REMARK  141  A    between atoms: _380  and  _382
REMARK  142  A    between atoms: _382  and  _383
REMARK  143  A    between atoms: _382  and  _385
REMARK  144  A    between atoms: _385  and  _386
REMARK  145  A    between atoms: _389  and  _391
REMARK  146  A    between atoms: _391  and  _392
REMARK  147  A    between atoms: _391  and  _394
REMARK  148  A    between atoms: _394  and  _395
REMARK  149  A    between atoms: _400  and  _401
REMARK  150  A    between atoms: _403  and  _405
REMARK  151  A    between atoms: _405  and  _406
REMARK  152  A    between atoms: _405  and  _408
REMARK  153  A    between atoms: _408  and  _409
REMARK  154  A    between atoms: _415  and  _417
REMARK  155  A    between atoms: _417  and  _418
REMARK  156  A    between atoms: _417  and  _420
REMARK  157  A    between atoms: _420  and  _421
REMARK  158  A    between atoms: _426  and  _427
REMARK  159  A    between atoms: _429  and  _431
REMARK  160  A    between atoms: _431  and  _432
REMARK  161  A    between atoms: _431  and  _434
REMARK  162  A    between atoms: _434  and  _435
REMARK  163  A    between atoms: _435  and  _436
REMARK  164  A    between atoms: _436  and  _437
REMARK  165  A    between atoms: _446  and  _448
REMARK  166  A    between atoms: _448  and  _449
REMARK  167  A    between atoms: _448  and  _451
REMARK  168  A    between atoms: _451  and  _452
REMARK  169  A    between atoms: _455  and  _457
REMARK  170  A    between atoms: _457  and  _458
REMARK  171  A    between atoms: _460  and  _462
REMARK  172  A    between atoms: _462  and  _463
REMARK  173  A    between atoms: _462  and  _465
REMARK  174  A    between atoms: _465  and  _466
REMARK  175  A    between atoms: _472  and  _473
REMARK  176  A    between atoms: _478  and  _480
REMARK  177  A    between atoms: _480  and  _481
REMARK  178  A    between atoms: _483  and  _485
REMARK  179  A    between atoms: _485  and  _486
REMARK  180  A    between atoms: _485  and  _488
REMARK  181  A    between atoms: _488  and  _489
REMARK  182  A    between atoms: _495  and  _497
REMARK  183  A    between atoms: _497  and  _498
REMARK  184  A    between atoms: _497  and  _500
REMARK  185  A    between atoms: _500  and  _501
REMARK  186  A    between atoms: _506  and  _508
REMARK  187  A    between atoms: _508  and  _509
REMARK  188  A    between atoms: _508  and  _511
REMARK  189  A    between atoms: _511  and  _512
REMARK  190  A    between atoms: _512  and  _513
REMARK  191  A    between atoms: _513  and  _514
REMARK  192  A    between atoms: _514  and  ZN_788
REMARK  193  A    between atoms: _516  and  _518
REMARK  194  A    between atoms: _518  and  _519
REMARK  195  A    between atoms: _522  and  _524
REMARK  196  A    between atoms: _524  and  _525
REMARK  197  A    between atoms: _527  and  _529
REMARK  198  A    between atoms: _529  and  _530
REMARK  199  A    between atoms: _529  and  _532
REMARK  200  A    between atoms: _532  and  _533
REMARK  201  A    between atoms: _536  and  _538
REMARK  202  A    between atoms: _538  and  _539
REMARK  203  A    between atoms: _538  and  _541
REMARK  204  A    between atoms: _544  and  _546
REMARK  205  A    between atoms: _546  and  _547
REMARK  206  A    between atoms: _546  and  _549
REMARK  207  A    between atoms: _549  and  _550
REMARK  208  A    between atoms: _552  and  _554
REMARK  209  A    between atoms: _554  and  _555
REMARK  210  A    between atoms: _554  and  _557
REMARK  211  A    between atoms: _557  and  _558
REMARK  212  A    between atoms: _561  and  _563
REMARK  213  A    between atoms: _563  and  _564
REMARK  214  A    between atoms: _563  and  _566
REMARK  215  A    between atoms: _566  and  _567
REMARK  216  A    between atoms: _570  and  _572
REMARK  217  A    between atoms: _572  and  _573
REMARK  218  A    between atoms: _572  and  _575
REMARK  219  A    between atoms: _575  and  _576
REMARK  220  A    between atoms: _576  and  _577
REMARK  221  A    between atoms: _577  and  _578
REMARK  222  A    between atoms: _578  and  _579
REMARK  223  A    between atoms: _583  and  _585
REMARK  224  A    between atoms: _585  and  _586
REMARK  225  A    between atoms: _585  and  _588
REMARK  226  A    between atoms: _588  and  _589
REMARK  227  A    between atoms: _595  and  _597
REMARK  228  A    between atoms: _597  and  _598
REMARK  229  A    between atoms: _597  and  _600
REMARK  230  A    between atoms: _600  and  _601
REMARK  231  A    between atoms: _607  and  _609
REMARK  232  A    between atoms: _609  and  _610
REMARK  233  A    between atoms: _613  and  _615
REMARK  234  A    between atoms: _615  and  _616
REMARK  235  A    between atoms: _615  and  _618
REMARK  236  A    between atoms: _618  and  _619
REMARK  237  A    between atoms: _619  and  _620
REMARK  238  A    between atoms: _622  and  _624
REMARK  239  A    between atoms: _624  and  _625
REMARK  240  A    between atoms: _624  and  _627
REMARK  241  A    between atoms: _627  and  _628
REMARK  242  A    between atoms: _628  and  _629
REMARK  243  A    between atoms: _629  and  _630
REMARK  244  A    between atoms: _630  and  _631
REMARK  245  A    between atoms: _635  and  _637
REMARK  246  A    between atoms: _637  and  _638
REMARK  247  A    between atoms: _637  and  _640
REMARK  248  A    between atoms: _640  and  _641
REMARK  249  A    between atoms: _646  and  _647
REMARK  250  A    between atoms: _649  and  _651
REMARK  251  A    between atoms: _651  and  _652
REMARK  252  A    between atoms: _651  and  _654
REMARK  253  A    between atoms: _654  and  _655
REMARK  254  A    between atoms: _660  and  _662
REMARK  255  A    between atoms: _662  and  _663
REMARK  256  A    between atoms: _662  and  _665
REMARK  257  A    between atoms: _665  and  _666
REMARK  258  A    between atoms: _669  and  _671
REMARK  259  A    between atoms: _671  and  _672
REMARK  260  A    between atoms: _675  and  _677
REMARK  261  A    between atoms: _677  and  _678
REMARK  262  A    between atoms: _677  and  _680
REMARK  263  A    between atoms: _680  and  _681
REMARK  264  A    between atoms: _684  and  _686
REMARK  265  A    between atoms: _686  and  _687
REMARK  266  A    between atoms: _686  and  _689
REMARK  267  A    between atoms: _692  and  _694
REMARK  268  A    between atoms: _694  and  _695
REMARK  269  A    between atoms: _694  and  _697
REMARK  270  A    between atoms: _697  and  _698
REMARK  271  A    between atoms: _698  and  _699
REMARK  272  A    between atoms: _702  and  _704
REMARK  273  A    between atoms: _704  and  _705
REMARK  274  A    between atoms: _704  and  _707
REMARK  275  A    between atoms: _707  and  _708
REMARK  276  A    between atoms: _713  and  _714
REMARK  277  A    between atoms: _716  and  _718
REMARK  278  A    between atoms: _718  and  _719
REMARK  279  A    between atoms: _718  and  _721
REMARK  280  A    between atoms: _721  and  _722
REMARK  281  A    between atoms: _722  and  _723
REMARK  282  A    between atoms: _723  and  _724
REMARK  283  A    between atoms: _733  and  _735
REMARK  284  A    between atoms: _735  and  _736
REMARK  285  A    between atoms: _735  and  _738
REMARK  286  A    between atoms: _738  and  _739
REMARK  287  A    between atoms: _744  and  _745
REMARK  288  A    between atoms: _747  and  _749
REMARK  289  A    between atoms: _749  and  _750
REMARK  290  A    between atoms: _749  and  _752
REMARK  291  A    between atoms: _752  and  _753
REMARK  292  A    between atoms: _756  and  _758
REMARK  293  A    between atoms: _758  and  _759
REMARK  294  A    between atoms: _758  and  _761
REMARK  295  A    between atoms: _761  and  _762
REMARK  296  A    between atoms: _764  and  _766
REMARK  297  A    between atoms: _766  and  _767
REMARK  298  A    between atoms: _766  and  _769
REMARK  299  A    between atoms: _769  and  _770
REMARK  300  A    between atoms: _776  and  _778
REMARK  301  A    between atoms: _778  and  _779
REMARK  302  A    between atoms: _778  and  _781
REMARK  303  A    between atoms: _781  and  _782
REMARK  304  A    between atoms: _782  and  _783
REMARK                            x       y       z     vdW  Elec       q    Type
REMARK                         _______ _______ _______ _____ _____    ______ ____
ROOT
ATOM      1  O   HOH     1      28.275   5.706 -38.816  0.00  0.00    +0.000 OA
ENDROOT
TORSDOF 0
REMARK  Name = ../refined-set-2016/4ca8/4ca8_pocket.pdb
REMARK  304 active torsions:
REMARK  status: ('A' for Active; 'I' for Inactive)
REMARK    1  A    between atoms: _1  and  _3
REMARK    2  A    between atoms: _3  and  _4
REMARK    3  A    between atoms: _3  and  _6
REMARK    4  A    between atoms: _6  and  _7
REMARK    5  A    between atoms: _7  and  _8
REMARK    6  A    between atoms: _11  and  _13
REMARK    7  A    between atoms: _13  and  _14
REMARK    8  A    between atoms: _13  and  _16
REMARK    9  A    between atoms: _16  and  _17
REMARK   10  A    between atoms: _17  and  _18
REMARK   11  A    between atoms: _21  and  _23
REMARK   12  A    between atoms: _23  and  _24
REMARK   13  A    between atoms: _23  and  _26
REMARK   14  A    between atoms: _26  and  _27
REMARK   15  A    between atoms: _32  and  _34
REMARK   16  A    between atoms: _34  and  _35
REMARK   17  A    between atoms: _34  and  _37
REMARK   18  A    between atoms: _37  and  _38
REMARK   19  A    between atoms: _48  and  _50
REMARK   20  A    between atoms: _50  and  _51
REMARK   21  A    between atoms: _50  and  _53
REMARK   22  A    between atoms: _53  and  _54
REMARK   23  A    between atoms: _54  and  _55
REMARK   24  A    between atoms: _60  and  _62
REMARK   25  A    between atoms: _62  and  _63
REMARK   26  A    between atoms: _62  and  _65
REMARK   27  A    between atoms: _65  and  _66
REMARK   28  A    between atoms: _66  and  _67
REMARK   29  A    between atoms: _72  and  _74
REMARK   30  A    between atoms: _74  and  _75
REMARK   31  A    between atoms: _74  and  _77
REMARK   32  A    between atoms: _77  and  _78
REMARK   33  A    between atoms: _80  and  _82
REMARK   34  A    between atoms: _82  and  _83
REMARK   35  A    between atoms: _82  and  _85
REMARK   36  A    between atoms: _85  and  _86
REMARK   37  A    between atoms: _86  and  _87
REMARK   38  A    between atoms: _90  and  _92
REMARK   39  A    between atoms: _92  and  _93
REMARK   40  A    between atoms: _92  and  _95
REMARK   41  A    between atoms: _98  and  _100
REMARK   42  A    between atoms: _100  and  _101
REMARK   43  A    between atoms: _100  and  _103
REMARK   44  A    between atoms: _105  and  _107
REMARK   45  A    between atoms: _107  and  _108
REMARK   46  A    between atoms: _107  and  _110
REMARK   47  A    between atoms: _110  and  _111
REMARK   48  A    between atoms: _116  and  _118
REMARK   49  A    between atoms: _118  and  _119
REMARK   50  A    between atoms: _122  and  _124
REMARK   51  A    between atoms: _124  and  _125
REMARK   52  A    between atoms: _124  and  _127
REMARK   53  A    between atoms: _127  and  _128
REMARK   54  A    between atoms: _130  and  _132
REMARK   55  A    between atoms: _132  and  _133
REMARK   56  A    between atoms: _136  and  _138
REMARK   57  A    between atoms: _138  and  _139
REMARK   58  A    between atoms: _138  and  _141
REMARK   59  A    between atoms: _141  and  _142
REMARK   60  A    between atoms: _152  and  _154
REMARK   61  A    between atoms: _154  and  _155
REMARK   62  A    between atoms: _154  and  _157
REMARK   63  A    between atoms: _157  and  _158
REMARK   64  A    between atoms: _161  and  _163
REMARK   65  A    between atoms: _163  and  _164
REMARK   66  A    between atoms: _163  and  _166
REMARK   67  A    between atoms: _166  and  _167
REMARK   68  A    between atoms: _172  and  _173
REMARK   69  A    between atoms: _175  and  _177
REMARK   70  A    between atoms: _177  and  _178
REMARK   71  A    between atoms: _177  and  _180
REMARK   72  A    between atoms: _180  and  _181
REMARK   73  A    between atoms: _181  and  _182
REMARK   74  A    between atoms: _182  and  _183
REMARK   75  A    between atoms: _192  and  _194
REMARK   76  A    between atoms: _194  and  _195
REMARK   77  A    between atoms: _194  and  _197
REMARK   78  A    between atoms: _197  and  _198
REMARK   79  A    between atoms: _201  and  _203
REMARK   80  A    between atoms: _203  and  _204
REMARK   81  A    between atoms: _203  and  _206
REMARK   82  A    between atoms: _206  and  _207
REMARK   83  A    between atoms: _207  and  _208
REMARK   84  A    between atoms: _208  and  _209
REMARK   85  A    between atoms: _209  and  _210
REMARK   86  A    between atoms: _214  and  _216
REMARK   87  A    between atoms: _216  and  _217
REMARK   88  A    between atoms: _216  and  _219
REMARK   89  A    between atoms: _219  and  _220
REMARK   90  A    between atoms: _220  and  _221
REMARK   91  A    between atoms: _226  and  _228
REMARK   92  A    between atoms: _228  and  _229
REMARK   93  A    between atoms: _228  and  _231
REMARK   94  A    between atoms: _231  and  _232
REMARK   95  A    between atoms: _232  and  _233
REMARK   96  A    between atoms: _233  and  _234
REMARK   97  A    between atoms: _243  and  _245
REMARK   98  A    between atoms: _245  and  _246
REMARK   99  A    between atoms: _245  and  _248
REMARK  100  A    between atoms: _248  and  _249
REMARK  101  A    between atoms: _252  and  _254
REMARK  102  A    between atoms: _254  and  _255
REMARK  103  A    between atoms: _254  and  _257
REMARK  104  A    between atoms: _257  and  _258
REMARK  105  A    between atoms: _258  and  _259
REMARK  106  A    between atoms: _264  and  _266
REMARK  107  A    between atoms: _266  and  _267
REMARK  108  A    between atoms: _266  and  _269
REMARK  109  A    between atoms: _269  and  _270
REMARK  110  A    between atoms: _273  and  _275
REMARK  111  A    between atoms: _275  and  _276
REMARK  112  A    between atoms: _275  and  _278
REMARK  113  A    between atoms: _278  and  _279
REMARK  114  A    between atoms: _279  and  _280
REMARK  115  A    between atoms: _285  and  _287
REMARK  116  A    between atoms: _287  and  _288
REMARK  117  A    between atoms: _287  and  _290
REMARK  118  A    between atoms: _290  and  _291
REMARK  119  A    between atoms: _294  and  _296
REMARK  120  A    between atoms: _296  and  _297
REMARK  121  A    between atoms: _296  and  _299
REMARK  122  A    between atoms: _299  and  _300
REMARK  123  A    between atoms: _306  and  _308
REMARK  124  A    between atoms: _308  and  _309
REMARK  125  A    between atoms: _308  and  _311
REMARK  126  A    between atoms: _311  and  _312
REMARK  127  A    between atoms: _315  and  _317
REMARK  128  A    between atoms: _317  and  _318
REMARK  129  A    between atoms: _317  and  _320
REMARK  130  A    between atoms: _323  and  _325
REMARK  131  A    between atoms: _325  and  _326
REMARK  132  A    between atoms: _325  and  _328
REMARK  133  A    between atoms: _328  and  _329
REMARK  134  A    between atoms: _334  and  _336
REMARK  135  A    between atoms: _347  and  _350
REMARK  136  A    between atoms: _350  and  _351
REMARK  137  A    between atoms: _351  and  _352
REMARK  138  A    between atoms: _357  and  _360
REMARK  139  A    between atoms: _360  and  _361
REMARK  140  A    between atoms: _371  and  _372
REMARK  141  A    between atoms: _380  and  _382
REMARK  142  A    between atoms: _382  and  _383
REMARK  143  A    between atoms: _382  and  _385
REMARK  144  A    between atoms: _385  and  _386
REMARK  145  A    between atoms: _389  and  _391
REMARK  146  A    between atoms: _391  and  _392
REMARK  147  A    between atoms: _391  and  _394
REMARK  148  A    between atoms: _394  and  _395
REMARK  149  A    between atoms: _400  and  _401
REMARK  150  A    between atoms: _403  and  _405
REMARK  151  A    between atoms: _405  and  _406
REMARK  152  A    between atoms: _405  and  _408
REMARK  153  A    between atoms: _408  and  _409
REMARK  154  A    between atoms: _415  and  _417
REMARK  155  A    between atoms: _417  and  _418
REMARK  156  A    between atoms: _417  and  _420
REMARK  157  A    between atoms: _420  and  _421
REMARK  158  A    between atoms: _426  and  _427
REMARK  159  A    between atoms: _429  and  _431
REMARK  160  A    between atoms: _431  and  _432
REMARK  161  A    between atoms: _431  and  _434
REMARK  162  A    between atoms: _434  and  _435
REMARK  163  A    between atoms: _435  and  _436
REMARK  164  A    between atoms: _436  and  _437
REMARK  165  A    between atoms: _446  and  _448
REMARK  166  A    between atoms: _448  and  _449
REMARK  167  A    between atoms: _448  and  _451
REMARK  168  A    between atoms: _451  and  _452
REMARK  169  A    between atoms: _455  and  _457
REMARK  170  A    between atoms: _457  and  _458
REMARK  171  A    between atoms: _460  and  _462
REMARK  172  A    between atoms: _462  and  _463
REMARK  173  A    between atoms: _462  and  _465
REMARK  174  A    between atoms: _465  and  _466
REMARK  175  A    between atoms: _472  and  _473
REMARK  176  A    between atoms: _478  and  _480
REMARK  177  A    between atoms: _480  and  _481
REMARK  178  A    between atoms: _483  and  _485
REMARK  179  A    between atoms: _485  and  _486
REMARK  180  A    between atoms: _485  and  _488
REMARK  181  A    between atoms: _488  and  _489
REMARK  182  A    between atoms: _495  and  _497
REMARK  183  A    between atoms: _497  and  _498
REMARK  184  A    between atoms: _497  and  _500
REMARK  185  A    between atoms: _500  and  _501
REMARK  186  A    between atoms: _506  and  _508
REMARK  187  A    between atoms: _508  and  _509
REMARK  188  A    between atoms: _508  and  _511
REMARK  189  A    between atoms: _511  and  _512
REMARK  190  A    between atoms: _512  and  _513
REMARK  191  A    between atoms: _513  and  _514
REMARK  192  A    between atoms: _514  and  ZN_788
REMARK  193  A    between atoms: _516  and  _518
REMARK  194  A    between atoms: _518  and  _519
REMARK  195  A    between atoms: _522  and  _524
REMARK  196  A    between atoms: _524  and  _525
REMARK  197  A    between atoms: _527  and  _529
REMARK  198  A    between atoms: _529  and  _530
REMARK  199  A    between atoms: _529  and  _532
REMARK  200  A    between atoms: _532  and  _533
REMARK  201  A    between atoms: _536  and  _538
REMARK  202  A    between atoms: _538  and  _539
REMARK  203  A    between atoms: _538  and  _541
REMARK  204  A    between atoms: _544  and  _546
REMARK  205  A    between atoms: _546  and  _547
REMARK  206  A    between atoms: _546  and  _549
REMARK  207  A    between atoms: _549  and  _550
REMARK  208  A    between atoms: _552  and  _554
REMARK  209  A    between atoms: _554  and  _555
REMARK  210  A    between atoms: _554  and  _557
REMARK  211  A    between atoms: _557  and  _558
REMARK  212  A    between atoms: _561  and  _563
REMARK  213  A    between atoms: _563  and  _564
REMARK  214  A    between atoms: _563  and  _566
REMARK  215  A    between atoms: _566  and  _567
REMARK  216  A    between atoms: _570  and  _572
REMARK  217  A    between atoms: _572  and  _573
REMARK  218  A    between atoms: _572  and  _575
REMARK  219  A    between atoms: _575  and  _576
REMARK  220  A    between atoms: _576  and  _577
REMARK  221  A    between atoms: _577  and  _578
REMARK  222  A    between atoms: _578  and  _579
REMARK  223  A    between atoms: _583  and  _585
REMARK  224  A    between atoms: _585  and  _586
REMARK  225  A    between atoms: _585  and  _588
REMARK  226  A    between atoms: _588  and  _589
REMARK  227  A    between atoms: _595  and  _597
REMARK  228  A    between atoms: _597  and  _598
REMARK  229  A    between atoms: _597  and  _600
REMARK  230  A    between atoms: _600  and  _601
REMARK  231  A    between atoms: _607  and  _609
REMARK  232  A    between atoms: _609  and  _610
REMARK  233  A    between atoms: _613  and  _615
REMARK  234  A    between atoms: _615  and  _616
REMARK  235  A    between atoms: _615  and  _618
REMARK  236  A    between atoms: _618  and  _619
REMARK  237  A    between atoms: _619  and  _620
REMARK  238  A    between atoms: _622  and  _624
REMARK  239  A    between atoms: _624  and  _625
REMARK  240  A    between atoms: _624  and  _627
REMARK  241  A    between atoms: _627  and  _628
REMARK  242  A    between atoms: _628  and  _629
REMARK  243  A    between atoms: _629  and  _630
REMARK  244  A    between atoms: _630  and  _631
REMARK  245  A    between atoms: _635  and  _637
REMARK  246  A    between atoms: _637  and  _638
REMARK  247  A    between atoms: _637  and  _640
REMARK  248  A    between atoms: _640  and  _641
REMARK  249  A    between atoms: _646  and  _647
REMARK  250  A    between atoms: _649  and  _651
REMARK  251  A    between atoms: _651  and  _652
REMARK  252  A    between atoms: _651  and  _654
REMARK  253  A    between atoms: _654  and  _655
REMARK  254  A    between atoms: _660  and  _662
REMARK  255  A    between atoms: _662  and  _663
REMARK  256  A    between atoms: _662  and  _665
REMARK  257  A    between atoms: _665  and  _666
REMARK  258  A    between atoms: _669  and  _671
REMARK  259  A    between atoms: _671  and  _672
REMARK  260  A    between atoms: _675  and  _677
REMARK  261  A    between atoms: _677  and  _678
REMARK  262  A    between atoms: _677  and  _680
REMARK  263  A    between atoms: _680  and  _681
REMARK  264  A    between atoms: _684  and  _686
REMARK  265  A    between atoms: _686  and  _687
REMARK  266  A    between atoms: _686  and  _689
REMARK  267  A    between atoms: _692  and  _694
REMARK  268  A    between atoms: _694  and  _695
REMARK  269  A    between atoms: _694  and  _697
REMARK  270  A    between atoms: _697  and  _698
REMARK  271  A    between atoms: _698  and  _699
REMARK  272  A    between atoms: _702  and  _704
REMARK  273  A    between atoms: _704  and  _705
REMARK  274  A    between atoms: _704  and  _707
REMARK  275  A    between atoms: _707  and  _708
REMARK  276  A    between atoms: _713  and  _714
REMARK  277  A    between atoms: _716  and  _718
REMARK  278  A    between atoms: _718  and  _719
REMARK  279  A    between atoms: _718  and  _721
REMARK  280  A    between atoms: _721  and  _722
REMARK  281  A    between atoms: _722  and  _723
REMARK  282  A    between atoms: _723  and  _724
REMARK  283  A    between atoms: _733  and  _735
REMARK  284  A    between atoms: _735  and  _736
REMARK  285  A    between atoms: _735  and  _738
REMARK  286  A    between atoms: _738  and  _739
REMARK  287  A    between atoms: _744  and  _745
REMARK  288  A    between atoms: _747  and  _749
REMARK  289  A    between atoms: _749  and  _750
REMARK  290  A    between atoms: _749  and  _752
REMARK  291  A    between atoms: _752  and  _753
REMARK  292  A    between atoms: _756  and  _758
REMARK  293  A    between atoms: _758  and  _759
REMARK  294  A    between atoms: _758  and  _761
REMARK  295  A    between atoms: _761  and  _762
REMARK  296  A    between atoms: _764  and  _766
REMARK  297  A    between atoms: _766  and  _767
REMARK  298  A    between atoms: _766  and  _769
REMARK  299  A    between atoms: _769  and  _770
REMARK  300  A    between atoms: _776  and  _778
REMARK  301  A    between atoms: _778  and  _779
REMARK  302  A    between atoms: _778  and  _781
REMARK  303  A    between atoms: _781  and  _782
REMARK  304  A    between atoms: _782  and  _783
REMARK                            x       y       z     vdW  Elec       q    Type
REMARK                         _______ _______ _______ _____ _____    ______ ____
ROOT
ATOM      1  O   HOH     1      28.479  -4.374 -50.673  0.00  0.00    +0.000 OA
ENDROOT
TORSDOF 0
REMARK  Name = ../refined-set-2016/4ca8/4ca8_pocket.pdb
REMARK  304 active torsions:
REMARK  status: ('A' for Active; 'I' for Inactive)
REMARK    1  A    between atoms: _1  and  _3
REMARK    2  A    between atoms: _3  and  _4
REMARK    3  A    between atoms: _3  and  _6
REMARK    4  A    between atoms: _6  and  _7
REMARK    5  A    between atoms: _7  and  _8
REMARK    6  A    between atoms: _11  and  _13
REMARK    7  A    between atoms: _13  and  _14
REMARK    8  A    between atoms: _13  and  _16
REMARK    9  A    between atoms: _16  and  _17
REMARK   10  A    between atoms: _17  and  _18
REMARK   11  A    between atoms: _21  and  _23
REMARK   12  A    between atoms: _23  and  _24
REMARK   13  A    between atoms: _23  and  _26
REMARK   14  A    between atoms: _26  and  _27
REMARK   15  A    between atoms: _32  and  _34
REMARK   16  A    between atoms: _34  and  _35
REMARK   17  A    between atoms: _34  and  _37
REMARK   18  A    between atoms: _37  and  _38
REMARK   19  A    between atoms: _48  and  _50
REMARK   20  A    between atoms: _50  and  _51
REMARK   21  A    between atoms: _50  and  _53
REMARK   22  A    between atoms: _53  and  _54
REMARK   23  A    between atoms: _54  and  _55
REMARK   24  A    between atoms: _60  and  _62
REMARK   25  A    between atoms: _62  and  _63
REMARK   26  A    between atoms: _62  and  _65
REMARK   27  A    between atoms: _65  and  _66
REMARK   28  A    between atoms: _66  and  _67
REMARK   29  A    between atoms: _72  and  _74
REMARK   30  A    between atoms: _74  and  _75
REMARK   31  A    between atoms: _74  and  _77
REMARK   32  A    between atoms: _77  and  _78
REMARK   33  A    between atoms: _80  and  _82
REMARK   34  A    between atoms: _82  and  _83
REMARK   35  A    between atoms: _82  and  _85
REMARK   36  A    between atoms: _85  and  _86
REMARK   37  A    between atoms: _86  and  _87
REMARK   38  A    between atoms: _90  and  _92
REMARK   39  A    between atoms: _92  and  _93
REMARK   40  A    between atoms: _92  and  _95
REMARK   41  A    between atoms: _98  and  _100
REMARK   42  A    between atoms: _100  and  _101
REMARK   43  A    between atoms: _100  and  _103
REMARK   44  A    between atoms: _105  and  _107
REMARK   45  A    between atoms: _107  and  _108
REMARK   46  A    between atoms: _107  and  _110
REMARK   47  A    between atoms: _110  and  _111
REMARK   48  A    between atoms: _116  and  _118
REMARK   49  A    between atoms: _118  and  _119
REMARK   50  A    between atoms: _122  and  _124
REMARK   51  A    between atoms: _124  and  _125
REMARK   52  A    between atoms: _124  and  _127
REMARK   53  A    between atoms: _127  and  _128
REMARK   54  A    between atoms: _130  and  _132
REMARK   55  A    between atoms: _132  and  _133
REMARK   56  A    between atoms: _136  and  _138
REMARK   57  A    between atoms: _138  and  _139
REMARK   58  A    between atoms: _138  and  _141
REMARK   59  A    between atoms: _141  and  _142
REMARK   60  A    between atoms: _152  and  _154
REMARK   61  A    between atoms: _154  and  _155
REMARK   62  A    between atoms: _154  and  _157
REMARK   63  A    between atoms: _157  and  _158
REMARK   64  A    between atoms: _161  and  _163
REMARK   65  A    between atoms: _163  and  _164
REMARK   66  A    between atoms: _163  and  _166
REMARK   67  A    between atoms: _166  and  _167
REMARK   68  A    between atoms: _172  and  _173
REMARK   69  A    between atoms: _175  and  _177
REMARK   70  A    between atoms: _177  and  _178
REMARK   71  A    between atoms: _177  and  _180
REMARK   72  A    between atoms: _180  and  _181
REMARK   73  A    between atoms: _181  and  _182
REMARK   74  A    between atoms: _182  and  _183
REMARK   75  A    between atoms: _192  and  _194
REMARK   76  A    between atoms: _194  and  _195
REMARK   77  A    between atoms: _194  and  _197
REMARK   78  A    between atoms: _197  and  _198
REMARK   79  A    between atoms: _201  and  _203
REMARK   80  A    between atoms: _203  and  _204
REMARK   81  A    between atoms: _203  and  _206
REMARK   82  A    between atoms: _206  and  _207
REMARK   83  A    between atoms: _207  and  _208
REMARK   84  A    between atoms: _208  and  _209
REMARK   85  A    between atoms: _209  and  _210
REMARK   86  A    between atoms: _214  and  _216
REMARK   87  A    between atoms: _216  and  _217
REMARK   88  A    between atoms: _216  and  _219
REMARK   89  A    between atoms: _219  and  _220
REMARK   90  A    between atoms: _220  and  _221
REMARK   91  A    between atoms: _226  and  _228
REMARK   92  A    between atoms: _228  and  _229
REMARK   93  A    between atoms: _228  and  _231
REMARK   94  A    between atoms: _231  and  _232
REMARK   95  A    between atoms: _232  and  _233
REMARK   96  A    between atoms: _233  and  _234
REMARK   97  A    between atoms: _243  and  _245
REMARK   98  A    between atoms: _245  and  _246
REMARK   99  A    between atoms: _245  and  _248
REMARK  100  A    between atoms: _248  and  _249
REMARK  101  A    between atoms: _252  and  _254
REMARK  102  A    between atoms: _254  and  _255
REMARK  103  A    between atoms: _254  and  _257
REMARK  104  A    between atoms: _257  and  _258
REMARK  105  A    between atoms: _258  and  _259
REMARK  106  A    between atoms: _264  and  _266
REMARK  107  A    between atoms: _266  and  _267
REMARK  108  A    between atoms: _266  and  _269
REMARK  109  A    between atoms: _269  and  _270
REMARK  110  A    between atoms: _273  and  _275
REMARK  111  A    between atoms: _275  and  _276
REMARK  112  A    between atoms: _275  and  _278
REMARK  113  A    between atoms: _278  and  _279
REMARK  114  A    between atoms: _279  and  _280
REMARK  115  A    between atoms: _285  and  _287
REMARK  116  A    between atoms: _287  and  _288
REMARK  117  A    between atoms: _287  and  _290
REMARK  118  A    between atoms: _290  and  _291
REMARK  119  A    between atoms: _294  and  _296
REMARK  120  A    between atoms: _296  and  _297
REMARK  121  A    between atoms: _296  and  _299
REMARK  122  A    between atoms: _299  and  _300
REMARK  123  A    between atoms: _306  and  _308
REMARK  124  A    between atoms: _308  and  _309
REMARK  125  A    between atoms: _308  and  _311
REMARK  126  A    between atoms: _311  and  _312
REMARK  127  A    between atoms: _315  and  _317
REMARK  128  A    between atoms: _317  and  _318
REMARK  129  A    between atoms: _317  and  _320
REMARK  130  A    between atoms: _323  and  _325
REMARK  131  A    between atoms: _325  and  _326
REMARK  132  A    between atoms: _325  and  _328
REMARK  133  A    between atoms: _328  and  _329
REMARK  134  A    between atoms: _334  and  _336
REMARK  135  A    between atoms: _347  and  _350
REMARK  136  A    between atoms: _350  and  _351
REMARK  137  A    between atoms: _351  and  _352
REMARK  138  A    between atoms: _357  and  _360
REMARK  139  A    between atoms: _360  and  _361
REMARK  140  A    between atoms: _371  and  _372
REMARK  141  A    between atoms: _380  and  _382
REMARK  142  A    between atoms: _382  and  _383
REMARK  143  A    between atoms: _382  and  _385
REMARK  144  A    between atoms: _385  and  _386
REMARK  145  A    between atoms: _389  and  _391
REMARK  146  A    between atoms: _391  and  _392
REMARK  147  A    between atoms: _391  and  _394
REMARK  148  A    between atoms: _394  and  _395
REMARK  149  A    between atoms: _400  and  _401
REMARK  150  A    between atoms: _403  and  _405
REMARK  151  A    between atoms: _405  and  _406
REMARK  152  A    between atoms: _405  and  _408
REMARK  153  A    between atoms: _408  and  _409
REMARK  154  A    between atoms: _415  and  _417
REMARK  155  A    between atoms: _417  and  _418
REMARK  156  A    between atoms: _417  and  _420
REMARK  157  A    between atoms: _420  and  _421
REMARK  158  A    between atoms: _426  and  _427
REMARK  159  A    between atoms: _429  and  _431
REMARK  160  A    between atoms: _431  and  _432
REMARK  161  A    between atoms: _431  and  _434
REMARK  162  A    between atoms: _434  and  _435
REMARK  163  A    between atoms: _435  and  _436
REMARK  164  A    between atoms: _436  and  _437
REMARK  165  A    between atoms: _446  and  _448
REMARK  166  A    between atoms: _448  and  _449
REMARK  167  A    between atoms: _448  and  _451
REMARK  168  A    between atoms: _451  and  _452
REMARK  169  A    between atoms: _455  and  _457
REMARK  170  A    between atoms: _457  and  _458
REMARK  171  A    between atoms: _460  and  _462
REMARK  172  A    between atoms: _462  and  _463
REMARK  173  A    between atoms: _462  and  _465
REMARK  174  A    between atoms: _465  and  _466
REMARK  175  A    between atoms: _472  and  _473
REMARK  176  A    between atoms: _478  and  _480
REMARK  177  A    between atoms: _480  and  _481
REMARK  178  A    between atoms: _483  and  _485
REMARK  179  A    between atoms: _485  and  _486
REMARK  180  A    between atoms: _485  and  _488
REMARK  181  A    between atoms: _488  and  _489
REMARK  182  A    between atoms: _495  and  _497
REMARK  183  A    between atoms: _497  and  _498
REMARK  184  A    between atoms: _497  and  _500
REMARK  185  A    between atoms: _500  and  _501
REMARK  186  A    between atoms: _506  and  _508
REMARK  187  A    between atoms: _508  and  _509
REMARK  188  A    between atoms: _508  and  _511
REMARK  189  A    between atoms: _511  and  _512
REMARK  190  A    between atoms: _512  and  _513
REMARK  191  A    between atoms: _513  and  _514
REMARK  192  A    between atoms: _514  and  ZN_788
REMARK  193  A    between atoms: _516  and  _518
REMARK  194  A    between atoms: _518  and  _519
REMARK  195  A    between atoms: _522  and  _524
REMARK  196  A    between atoms: _524  and  _525
REMARK  197  A    between atoms: _527  and  _529
REMARK  198  A    between atoms: _529  and  _530
REMARK  199  A    between atoms: _529  and  _532
REMARK  200  A    between atoms: _532  and  _533
REMARK  201  A    between atoms: _536  and  _538
REMARK  202  A    between atoms: _538  and  _539
REMARK  203  A    between atoms: _538  and  _541
REMARK  204  A    between atoms: _544  and  _546
REMARK  205  A    between atoms: _546  and  _547
REMARK  206  A    between atoms: _546  and  _549
REMARK  207  A    between atoms: _549  and  _550
REMARK  208  A    between atoms: _552  and  _554
REMARK  209  A    between atoms: _554  and  _555
REMARK  210  A    between atoms: _554  and  _557
REMARK  211  A    between atoms: _557  and  _558
REMARK  212  A    between atoms: _561  and  _563
REMARK  213  A    between atoms: _563  and  _564
REMARK  214  A    between atoms: _563  and  _566
REMARK  215  A    between atoms: _566  and  _567
REMARK  216  A    between atoms: _570  and  _572
REMARK  217  A    between atoms: _572  and  _573
REMARK  218  A    between atoms: _572  and  _575
REMARK  219  A    between atoms: _575  and  _576
REMARK  220  A    between atoms: _576  and  _577
REMARK  221  A    between atoms: _577  and  _578
REMARK  222  A    between atoms: _578  and  _579
REMARK  223  A    between atoms: _583  and  _585
REMARK  224  A    between atoms: _585  and  _586
REMARK  225  A    between atoms: _585  and  _588
REMARK  226  A    between atoms: _588  and  _589
REMARK  227  A    between atoms: _595  and  _597
REMARK  228  A    between atoms: _597  and  _598
REMARK  229  A    between atoms: _597  and  _600
REMARK  230  A    between atoms: _600  and  _601
REMARK  231  A    between atoms: _607  and  _609
REMARK  232  A    between atoms: _609  and  _610
REMARK  233  A    between atoms: _613  and  _615
REMARK  234  A    between atoms: _615  and  _616
REMARK  235  A    between atoms: _615  and  _618
REMARK  236  A    between atoms: _618  and  _619
REMARK  237  A    between atoms: _619  and  _620
REMARK  238  A    between atoms: _622  and  _624
REMARK  239  A    between atoms: _624  and  _625
REMARK  240  A    between atoms: _624  and  _627
REMARK  241  A    between atoms: _627  and  _628
REMARK  242  A    between atoms: _628  and  _629
REMARK  243  A    between atoms: _629  and  _630
REMARK  244  A    between atoms: _630  and  _631
REMARK  245  A    between atoms: _635  and  _637
REMARK  246  A    between atoms: _637  and  _638
REMARK  247  A    between atoms: _637  and  _640
REMARK  248  A    between atoms: _640  and  _641
REMARK  249  A    between atoms: _646  and  _647
REMARK  250  A    between atoms: _649  and  _651
REMARK  251  A    between atoms: _651  and  _652
REMARK  252  A    between atoms: _651  and  _654
REMARK  253  A    between atoms: _654  and  _655
REMARK  254  A    between atoms: _660  and  _662
REMARK  255  A    between atoms: _662  and  _663
REMARK  256  A    between atoms: _662  and  _665
REMARK  257  A    between atoms: _665  and  _666
REMARK  258  A    between atoms: _669  and  _671
REMARK  259  A    between atoms: _671  and  _672
REMARK  260  A    between atoms: _675  and  _677
REMARK  261  A    between atoms: _677  and  _678
REMARK  262  A    between atoms: _677  and  _680
REMARK  263  A    between atoms: _680  and  _681
REMARK  264  A    between atoms: _684  and  _686
REMARK  265  A    between atoms: _686  and  _687
REMARK  266  A    between atoms: _686  and  _689
REMARK  267  A    between atoms: _692  and  _694
REMARK  268  A    between atoms: _694  and  _695
REMARK  269  A    between atoms: _694  and  _697
REMARK  270  A    between atoms: _697  and  _698
REMARK  271  A    between atoms: _698  and  _699
REMARK  272  A    between atoms: _702  and  _704
REMARK  273  A    between atoms: _704  and  _705
REMARK  274  A    between atoms: _704  and  _707
REMARK  275  A    between atoms: _707  and  _708
REMARK  276  A    between atoms: _713  and  _714
REMARK  277  A    between atoms: _716  and  _718
REMARK  278  A    between atoms: _718  and  _719
REMARK  279  A    between atoms: _718  and  _721
REMARK  280  A    between atoms: _721  and  _722
REMARK  281  A    between atoms: _722  and  _723
REMARK  282  A    between atoms: _723  and  _724
REMARK  283  A    between atoms: _733  and  _735
REMARK  284  A    between atoms: _735  and  _736
REMARK  285  A    between atoms: _735  and  _738
REMARK  286  A    between atoms: _738  and  _739
REMARK  287  A    between atoms: _744  and  _745
REMARK  288  A    between atoms: _747  and  _749
REMARK  289  A    between atoms: _749  and  _750
REMARK  290  A    between atoms: _749  and  _752
REMARK  291  A    between atoms: _752  and  _753
REMARK  292  A    between atoms: _756  and  _758
REMARK  293  A    between atoms: _758  and  _759
REMARK  294  A    between atoms: _758  and  _761
REMARK  295  A    between atoms: _761  and  _762
REMARK  296  A    between atoms: _764  and  _766
REMARK  297  A    between atoms: _766  and  _767
REMARK  298  A    between atoms: _766  and  _769
REMARK  299  A    between atoms: _769  and  _770
REMARK  300  A    between atoms: _776  and  _778
REMARK  301  A    between atoms: _778  and  _779
REMARK  302  A    between atoms: _778  and  _781
REMARK  303  A    between atoms: _781  and  _782
REMARK  304  A    between atoms: _782  and  _783
REMARK                            x       y       z     vdW  Elec       q    Type
REMARK                         _______ _______ _______ _____ _____    ______ ____
ROOT
ATOM      1  O   HOH     1      26.701  -8.997 -49.291  0.00  0.00    +0.000 OA
ENDROOT
TORSDOF 0
REMARK  Name = ../refined-set-2016/4ca8/4ca8_pocket.pdb
REMARK  304 active torsions:
REMARK  status: ('A' for Active; 'I' for Inactive)
REMARK    1  A    between atoms: _1  and  _3
REMARK    2  A    between atoms: _3  and  _4
REMARK    3  A    between atoms: _3  and  _6
REMARK    4  A    between atoms: _6  and  _7
REMARK    5  A    between atoms: _7  and  _8
REMARK    6  A    between atoms: _11  and  _13
REMARK    7  A    between atoms: _13  and  _14
REMARK    8  A    between atoms: _13  and  _16
REMARK    9  A    between atoms: _16  and  _17
REMARK   10  A    between atoms: _17  and  _18
REMARK   11  A    between atoms: _21  and  _23
REMARK   12  A    between atoms: _23  and  _24
REMARK   13  A    between atoms: _23  and  _26
REMARK   14  A    between atoms: _26  and  _27
REMARK   15  A    between atoms: _32  and  _34
REMARK   16  A    between atoms: _34  and  _35
REMARK   17  A    between atoms: _34  and  _37
REMARK   18  A    between atoms: _37  and  _38
REMARK   19  A    between atoms: _48  and  _50
REMARK   20  A    between atoms: _50  and  _51
REMARK   21  A    between atoms: _50  and  _53
REMARK   22  A    between atoms: _53  and  _54
REMARK   23  A    between atoms: _54  and  _55
REMARK   24  A    between atoms: _60  and  _62
REMARK   25  A    between atoms: _62  and  _63
REMARK   26  A    between atoms: _62  and  _65
REMARK   27  A    between atoms: _65  and  _66
REMARK   28  A    between atoms: _66  and  _67
REMARK   29  A    between atoms: _72  and  _74
REMARK   30  A    between atoms: _74  and  _75
REMARK   31  A    between atoms: _74  and  _77
REMARK   32  A    between atoms: _77  and  _78
REMARK   33  A    between atoms: _80  and  _82
REMARK   34  A    between atoms: _82  and  _83
REMARK   35  A    between atoms: _82  and  _85
REMARK   36  A    between atoms: _85  and  _86
REMARK   37  A    between atoms: _86  and  _87
REMARK   38  A    between atoms: _90  and  _92
REMARK   39  A    between atoms: _92  and  _93
REMARK   40  A    between atoms: _92  and  _95
REMARK   41  A    between atoms: _98  and  _100
REMARK   42  A    between atoms: _100  and  _101
REMARK   43  A    between atoms: _100  and  _103
REMARK   44  A    between atoms: _105  and  _107
REMARK   45  A    between atoms: _107  and  _108
REMARK   46  A    between atoms: _107  and  _110
REMARK   47  A    between atoms: _110  and  _111
REMARK   48  A    between atoms: _116  and  _118
REMARK   49  A    between atoms: _118  and  _119
REMARK   50  A    between atoms: _122  and  _124
REMARK   51  A    between atoms: _124  and  _125
REMARK   52  A    between atoms: _124  and  _127
REMARK   53  A    between atoms: _127  and  _128
REMARK   54  A    between atoms: _130  and  _132
REMARK   55  A    between atoms: _132  and  _133
REMARK   56  A    between atoms: _136  and  _138
REMARK   57  A    between atoms: _138  and  _139
REMARK   58  A    between atoms: _138  and  _141
REMARK   59  A    between atoms: _141  and  _142
REMARK   60  A    between atoms: _152  and  _154
REMARK   61  A    between atoms: _154  and  _155
REMARK   62  A    between atoms: _154  and  _157
REMARK   63  A    between atoms: _157  and  _158
REMARK   64  A    between atoms: _161  and  _163
REMARK   65  A    between atoms: _163  and  _164
REMARK   66  A    between atoms: _163  and  _166
REMARK   67  A    between atoms: _166  and  _167
REMARK   68  A    between atoms: _172  and  _173
REMARK   69  A    between atoms: _175  and  _177
REMARK   70  A    between atoms: _177  and  _178
REMARK   71  A    between atoms: _177  and  _180
REMARK   72  A    between atoms: _180  and  _181
REMARK   73  A    between atoms: _181  and  _182
REMARK   74  A    between atoms: _182  and  _183
REMARK   75  A    between atoms: _192  and  _194
REMARK   76  A    between atoms: _194  and  _195
REMARK   77  A    between atoms: _194  and  _197
REMARK   78  A    between atoms: _197  and  _198
REMARK   79  A    between atoms: _201  and  _203
REMARK   80  A    between atoms: _203  and  _204
REMARK   81  A    between atoms: _203  and  _206
REMARK   82  A    between atoms: _206  and  _207
REMARK   83  A    between atoms: _207  and  _208
REMARK   84  A    between atoms: _208  and  _209
REMARK   85  A    between atoms: _209  and  _210
REMARK   86  A    between atoms: _214  and  _216
REMARK   87  A    between atoms: _216  and  _217
REMARK   88  A    between atoms: _216  and  _219
REMARK   89  A    between atoms: _219  and  _220
REMARK   90  A    between atoms: _220  and  _221
REMARK   91  A    between atoms: _226  and  _228
REMARK   92  A    between atoms: _228  and  _229
REMARK   93  A    between atoms: _228  and  _231
REMARK   94  A    between atoms: _231  and  _232
REMARK   95  A    between atoms: _232  and  _233
REMARK   96  A    between atoms: _233  and  _234
REMARK   97  A    between atoms: _243  and  _245
REMARK   98  A    between atoms: _245  and  _246
REMARK   99  A    between atoms: _245  and  _248
REMARK  100  A    between atoms: _248  and  _249
REMARK  101  A    between atoms: _252  and  _254
REMARK  102  A    between atoms: _254  and  _255
REMARK  103  A    between atoms: _254  and  _257
REMARK  104  A    between atoms: _257  and  _258
REMARK  105  A    between atoms: _258  and  _259
REMARK  106  A    between atoms: _264  and  _266
REMARK  107  A    between atoms: _266  and  _267
REMARK  108  A    between atoms: _266  and  _269
REMARK  109  A    between atoms: _269  and  _270
REMARK  110  A    between atoms: _273  and  _275
REMARK  111  A    between atoms: _275  and  _276
REMARK  112  A    between atoms: _275  and  _278
REMARK  113  A    between atoms: _278  and  _279
REMARK  114  A    between atoms: _279  and  _280
REMARK  115  A    between atoms: _285  and  _287
REMARK  116  A    between atoms: _287  and  _288
REMARK  117  A    between atoms: _287  and  _290
REMARK  118  A    between atoms: _290  and  _291
REMARK  119  A    between atoms: _294  and  _296
REMARK  120  A    between atoms: _296  and  _297
REMARK  121  A    between atoms: _296  and  _299
REMARK  122  A    between atoms: _299  and  _300
REMARK  123  A    between atoms: _306  and  _308
REMARK  124  A    between atoms: _308  and  _309
REMARK  125  A    between atoms: _308  and  _311
REMARK  126  A    between atoms: _311  and  _312
REMARK  127  A    between atoms: _315  and  _317
REMARK  128  A    between atoms: _317  and  _318
REMARK  129  A    between atoms: _317  and  _320
REMARK  130  A    between atoms: _323  and  _325
REMARK  131  A    between atoms: _325  and  _326
REMARK  132  A    between atoms: _325  and  _328
REMARK  133  A    between atoms: _328  and  _329
REMARK  134  A    between atoms: _334  and  _336
REMARK  135  A    between atoms: _347  and  _350
REMARK  136  A    between atoms: _350  and  _351
REMARK  137  A    between atoms: _351  and  _352
REMARK  138  A    between atoms: _357  and  _360
REMARK  139  A    between atoms: _360  and  _361
REMARK  140  A    between atoms: _371  and  _372
REMARK  141  A    between atoms: _380  and  _382
REMARK  142  A    between atoms: _382  and  _383
REMARK  143  A    between atoms: _382  and  _385
REMARK  144  A    between atoms: _385  and  _386
REMARK  145  A    between atoms: _389  and  _391
REMARK  146  A    between atoms: _391  and  _392
REMARK  147  A    between atoms: _391  and  _394
REMARK  148  A    between atoms: _394  and  _395
REMARK  149  A    between atoms: _400  and  _401
REMARK  150  A    between atoms: _403  and  _405
REMARK  151  A    between atoms: _405  and  _406
REMARK  152  A    between atoms: _405  and  _408
REMARK  153  A    between atoms: _408  and  _409
REMARK  154  A    between atoms: _415  and  _417
REMARK  155  A    between atoms: _417  and  _418
REMARK  156  A    between atoms: _417  and  _420
REMARK  157  A    between atoms: _420  and  _421
REMARK  158  A    between atoms: _426  and  _427
REMARK  159  A    between atoms: _429  and  _431
REMARK  160  A    between atoms: _431  and  _432
REMARK  161  A    between atoms: _431  and  _434
REMARK  162  A    between atoms: _434  and  _435
REMARK  163  A    between atoms: _435  and  _436
REMARK  164  A    between atoms: _436  and  _437
REMARK  165  A    between atoms: _446  and  _448
REMARK  166  A    between atoms: _448  and  _449
REMARK  167  A    between atoms: _448  and  _451
REMARK  168  A    between atoms: _451  and  _452
REMARK  169  A    between atoms: _455  and  _457
REMARK  170  A    between atoms: _457  and  _458
REMARK  171  A    between atoms: _460  and  _462
REMARK  172  A    between atoms: _462  and  _463
REMARK  173  A    between atoms: _462  and  _465
REMARK  174  A    between atoms: _465  and  _466
REMARK  175  A    between atoms: _472  and  _473
REMARK  176  A    between atoms: _478  and  _480
REMARK  177  A    between atoms: _480  and  _481
REMARK  178  A    between atoms: _483  and  _485
REMARK  179  A    between atoms: _485  and  _486
REMARK  180  A    between atoms: _485  and  _488
REMARK  181  A    between atoms: _488  and  _489
REMARK  182  A    between atoms: _495  and  _497
REMARK  183  A    between atoms: _497  and  _498
REMARK  184  A    between atoms: _497  and  _500
REMARK  185  A    between atoms: _500  and  _501
REMARK  186  A    between atoms: _506  and  _508
REMARK  187  A    between atoms: _508  and  _509
REMARK  188  A    between atoms: _508  and  _511
REMARK  189  A    between atoms: _511  and  _512
REMARK  190  A    between atoms: _512  and  _513
REMARK  191  A    between atoms: _513  and  _514
REMARK  192  A    between atoms: _514  and  ZN_788
REMARK  193  A    between atoms: _516  and  _518
REMARK  194  A    between atoms: _518  and  _519
REMARK  195  A    between atoms: _522  and  _524
REMARK  196  A    between atoms: _524  and  _525
REMARK  197  A    between atoms: _527  and  _529
REMARK  198  A    between atoms: _529  and  _530
REMARK  199  A    between atoms: _529  and  _532
REMARK  200  A    between atoms: _532  and  _533
REMARK  201  A    between atoms: _536  and  _538
REMARK  202  A    between atoms: _538  and  _539
REMARK  203  A    between atoms: _538  and  _541
REMARK  204  A    between atoms: _544  and  _546
REMARK  205  A    between atoms: _546  and  _547
REMARK  206  A    between atoms: _546  and  _549
REMARK  207  A    between atoms: _549  and  _550
REMARK  208  A    between atoms: _552  and  _554
REMARK  209  A    between atoms: _554  and  _555
REMARK  210  A    between atoms: _554  and  _557
REMARK  211  A    between atoms: _557  and  _558
REMARK  212  A    between atoms: _561  and  _563
REMARK  213  A    between atoms: _563  and  _564
REMARK  214  A    between atoms: _563  and  _566
REMARK  215  A    between atoms: _566  and  _567
REMARK  216  A    between atoms: _570  and  _572
REMARK  217  A    between atoms: _572  and  _573
REMARK  218  A    between atoms: _572  and  _575
REMARK  219  A    between atoms: _575  and  _576
REMARK  220  A    between atoms: _576  and  _577
REMARK  221  A    between atoms: _577  and  _578
REMARK  222  A    between atoms: _578  and  _579
REMARK  223  A    between atoms: _583  and  _585
REMARK  224  A    between atoms: _585  and  _586
REMARK  225  A    between atoms: _585  and  _588
REMARK  226  A    between atoms: _588  and  _589
REMARK  227  A    between atoms: _595  and  _597
REMARK  228  A    between atoms: _597  and  _598
REMARK  229  A    between atoms: _597  and  _600
REMARK  230  A    between atoms: _600  and  _601
REMARK  231  A    between atoms: _607  and  _609
REMARK  232  A    between atoms: _609  and  _610
REMARK  233  A    between atoms: _613  and  _615
REMARK  234  A    between atoms: _615  and  _616
REMARK  235  A    between atoms: _615  and  _618
REMARK  236  A    between atoms: _618  and  _619
REMARK  237  A    between atoms: _619  and  _620
REMARK  238  A    between atoms: _622  and  _624
REMARK  239  A    between atoms: _624  and  _625
REMARK  240  A    between atoms: _624  and  _627
REMARK  241  A    between atoms: _627  and  _628
REMARK  242  A    between atoms: _628  and  _629
REMARK  243  A    between atoms: _629  and  _630
REMARK  244  A    between atoms: _630  and  _631
REMARK  245  A    between atoms: _635  and  _637
REMARK  246  A    between atoms: _637  and  _638
REMARK  247  A    between atoms: _637  and  _640
REMARK  248  A    between atoms: _640  and  _641
REMARK  249  A    between atoms: _646  and  _647
REMARK  250  A    between atoms: _649  and  _651
REMARK  251  A    between atoms: _651  and  _652
REMARK  252  A    between atoms: _651  and  _654
REMARK  253  A    between atoms: _654  and  _655
REMARK  254  A    between atoms: _660  and  _662
REMARK  255  A    between atoms: _662  and  _663
REMARK  256  A    between atoms: _662  and  _665
REMARK  257  A    between atoms: _665  and  _666
REMARK  258  A    between atoms: _669  and  _671
REMARK  259  A    between atoms: _671  and  _672
REMARK  260  A    between atoms: _675  and  _677
REMARK  261  A    between atoms: _677  and  _678
REMARK  262  A    between atoms: _677  and  _680
REMARK  263  A    between atoms: _680  and  _681
REMARK  264  A    between atoms: _684  and  _686
REMARK  265  A    between atoms: _686  and  _687
REMARK  266  A    between atoms: _686  and  _689
REMARK  267  A    between atoms: _692  and  _694
REMARK  268  A    between atoms: _694  and  _695
REMARK  269  A    between atoms: _694  and  _697
REMARK  270  A    between atoms: _697  and  _698
REMARK  271  A    between atoms: _698  and  _699
REMARK  272  A    between atoms: _702  and  _704
REMARK  273  A    between atoms: _704  and  _705
REMARK  274  A    between atoms: _704  and  _707
REMARK  275  A    between atoms: _707  and  _708
REMARK  276  A    between atoms: _713  and  _714
REMARK  277  A    between atoms: _716  and  _718
REMARK  278  A    between atoms: _718  and  _719
REMARK  279  A    between atoms: _718  and  _721
REMARK  280  A    between atoms: _721  and  _722
REMARK  281  A    between atoms: _722  and  _723
REMARK  282  A    between atoms: _723  and  _724
REMARK  283  A    between atoms: _733  and  _735
REMARK  284  A    between atoms: _735  and  _736
REMARK  285  A    between atoms: _735  and  _738
REMARK  286  A    between atoms: _738  and  _739
REMARK  287  A    between atoms: _744  and  _745
REMARK  288  A    between atoms: _747  and  _749
REMARK  289  A    between atoms: _749  and  _750
REMARK  290  A    between atoms: _749  and  _752
REMARK  291  A    between atoms: _752  and  _753
REMARK  292  A    between atoms: _756  and  _758
REMARK  293  A    between atoms: _758  and  _759
REMARK  294  A    between atoms: _758  and  _761
REMARK  295  A    between atoms: _761  and  _762
REMARK  296  A    between atoms: _764  and  _766
REMARK  297  A    between atoms: _766  and  _767
REMARK  298  A    between atoms: _766  and  _769
REMARK  299  A    between atoms: _769  and  _770
REMARK  300  A    between atoms: _776  and  _778
REMARK  301  A    between atoms: _778  and  _779
REMARK  302  A    between atoms: _778  and  _781
REMARK  303  A    between atoms: _781  and  _782
REMARK  304  A    between atoms: _782  and  _783
REMARK                            x       y       z     vdW  Elec       q    Type
REMARK                         _______ _______ _______ _____ _____    ______ ____
ROOT
ATOM      1  O   HOH     1      25.381  -9.095 -43.874  0.00  0.00    +0.000 OA
ENDROOT
TORSDOF 0
