REMARK  Name = ../refined-set-2016/1pxn/1pxn_pocket.pdb
REMARK  218 active torsions:
REMARK  status: ('A' for Active; 'I' for Inactive)
REMARK    1  A    between atoms: _1  and  _3
REMARK    2  A    between atoms: _3  and  _4
REMARK    3  A    between atoms: _3  and  _6
REMARK    4  A    between atoms: _6  and  _7
REMARK    5  A    between atoms: _7  and  _8
REMARK    6  A    between atoms: _11  and  _13
REMARK    7  A    between atoms: _13  and  _14
REMARK    8  A    between atoms: _13  and  _16
REMARK    9  A    between atoms: _16  and  _17
REMARK   10  A    between atoms: _17  and  _18
REMARK   11  A    between atoms: _18  and  _19
REMARK   12  A    between atoms: _19  and  _20
REMARK   13  A    between atoms: _24  and  _26
REMARK   14  A    between atoms: _26  and  _27
REMARK   15  A    between atoms: _26  and  _29
REMARK   16  A    between atoms: _29  and  _30
REMARK   17  A    between atoms: _33  and  _35
REMARK   18  A    between atoms: _35  and  _36
REMARK   19  A    between atoms: _38  and  _40
REMARK   20  A    between atoms: _40  and  _41
REMARK   21  A    between atoms: _40  and  _43
REMARK   22  A    between atoms: _43  and  _44
REMARK   23  A    between atoms: _44  and  _45
REMARK   24  A    between atoms: _48  and  _50
REMARK   25  A    between atoms: _50  and  _51
REMARK   26  A    between atoms: _53  and  _55
REMARK   27  A    between atoms: _55  and  _56
REMARK   28  A    between atoms: _55  and  _58
REMARK   29  A    between atoms: _58  and  _59
REMARK   30  A    between atoms: _62  and  _64
REMARK   31  A    between atoms: _64  and  _65
REMARK   32  A    between atoms: _64  and  _67
REMARK   33  A    between atoms: _67  and  _68
REMARK   34  A    between atoms: _73  and  _74
REMARK   35  A    between atoms: _76  and  _78
REMARK   36  A    between atoms: _78  and  _79
REMARK   37  A    between atoms: _81  and  _83
REMARK   38  A    between atoms: _83  and  _84
REMARK   39  A    between atoms: _83  and  _86
REMARK   40  A    between atoms: _89  and  _91
REMARK   41  A    between atoms: _91  and  _92
REMARK   42  A    between atoms: _91  and  _94
REMARK   43  A    between atoms: _97  and  _99
REMARK   44  A    between atoms: _99  and  _100
REMARK   45  A    between atoms: _99  and  _102
REMARK   46  A    between atoms: _102  and  _103
REMARK   47  A    between atoms: _108  and  _109
REMARK   48  A    between atoms: _111  and  _113
REMARK   49  A    between atoms: _113  and  _114
REMARK   50  A    between atoms: _113  and  _116
REMARK   51  A    between atoms: _116  and  _117
REMARK   52  A    between atoms: _117  and  _118
REMARK   53  A    between atoms: _118  and  _119
REMARK   54  A    between atoms: _119  and  _120
REMARK   55  A    between atoms: _124  and  _126
REMARK   56  A    between atoms: _126  and  _127
REMARK   57  A    between atoms: _130  and  _132
REMARK   58  A    between atoms: _132  and  _133
REMARK   59  A    between atoms: _132  and  _135
REMARK   60  A    between atoms: _138  and  _140
REMARK   61  A    between atoms: _140  and  _141
REMARK   62  A    between atoms: _140  and  _143
REMARK   63  A    between atoms: _146  and  _148
REMARK   64  A    between atoms: _148  and  _149
REMARK   65  A    between atoms: _152  and  _154
REMARK   66  A    between atoms: _154  and  _155
REMARK   67  A    between atoms: _154  and  _157
REMARK   68  A    between atoms: _157  and  _158
REMARK   69  A    between atoms: _161  and  _163
REMARK   70  A    between atoms: _163  and  _164
REMARK   71  A    between atoms: _163  and  _166
REMARK   72  A    between atoms: _166  and  _167
REMARK   73  A    between atoms: _167  and  _168
REMARK   74  A    between atoms: _168  and  _169
REMARK   75  A    between atoms: _169  and  _170
REMARK   76  A    between atoms: _174  and  _176
REMARK   77  A    between atoms: _176  and  _177
REMARK   78  A    between atoms: _176  and  _179
REMARK   79  A    between atoms: _182  and  _184
REMARK   80  A    between atoms: _184  and  _185
REMARK   81  A    between atoms: _184  and  _187
REMARK   82  A    between atoms: _187  and  _188
REMARK   83  A    between atoms: _188  and  _189
REMARK   84  A    between atoms: _189  and  _190
REMARK   85  A    between atoms: _190  and  _191
REMARK   86  A    between atoms: _195  and  _197
REMARK   87  A    between atoms: _197  and  _198
REMARK   88  A    between atoms: _197  and  _200
REMARK   89  A    between atoms: _200  and  _201
REMARK   90  A    between atoms: _204  and  _206
REMARK   91  A    between atoms: _206  and  _207
REMARK   92  A    between atoms: _206  and  _209
REMARK   93  A    between atoms: _209  and  _210
REMARK   94  A    between atoms: _213  and  _215
REMARK   95  A    between atoms: _215  and  _216
REMARK   96  A    between atoms: _215  and  _218
REMARK   97  A    between atoms: _218  and  _219
REMARK   98  A    between atoms: _222  and  _224
REMARK   99  A    between atoms: _224  and  _225
REMARK  100  A    between atoms: _224  and  _227
REMARK  101  A    between atoms: _230  and  _232
REMARK  102  A    between atoms: _232  and  _233
REMARK  103  A    between atoms: _232  and  _235
REMARK  104  A    between atoms: _235  and  _236
REMARK  105  A    between atoms: _242  and  _244
REMARK  106  A    between atoms: _244  and  _245
REMARK  107  A    between atoms: _244  and  _247
REMARK  108  A    between atoms: _247  and  _248
REMARK  109  A    between atoms: _248  and  _249
REMARK  110  A    between atoms: _252  and  _254
REMARK  111  A    between atoms: _254  and  _255
REMARK  112  A    between atoms: _254  and  _257
REMARK  113  A    between atoms: _257  and  _258
REMARK  114  A    between atoms: _264  and  _266
REMARK  115  A    between atoms: _266  and  _267
REMARK  116  A    between atoms: _266  and  _269
REMARK  117  A    between atoms: _269  and  _270
REMARK  118  A    between atoms: _273  and  _275
REMARK  119  A    between atoms: _275  and  _276
REMARK  120  A    between atoms: _275  and  _278
REMARK  121  A    between atoms: _278  and  _279
REMARK  122  A    between atoms: _284  and  _286
REMARK  123  A    between atoms: _286  and  _287
REMARK  124  A    between atoms: _286  and  _289
REMARK  125  A    between atoms: _289  and  _290
REMARK  126  A    between atoms: _290  and  _291
REMARK  127  A    between atoms: _296  and  _298
REMARK  128  A    between atoms: _298  and  _299
REMARK  129  A    between atoms: _298  and  _301
REMARK  130  A    between atoms: _301  and  _302
REMARK  131  A    between atoms: _305  and  _307
REMARK  132  A    between atoms: _307  and  _308
REMARK  133  A    between atoms: _307  and  _310
REMARK  134  A    between atoms: _310  and  _311
REMARK  135  A    between atoms: _314  and  _316
REMARK  136  A    between atoms: _316  and  _317
REMARK  137  A    between atoms: _316  and  _319
REMARK  138  A    between atoms: _319  and  _320
REMARK  139  A    between atoms: _320  and  _321
REMARK  140  A    between atoms: _321  and  _322
REMARK  141  A    between atoms: _322  and  _323
REMARK  142  A    between atoms: _327  and  _329
REMARK  143  A    between atoms: _329  and  _330
REMARK  144  A    between atoms: _329  and  _332
REMARK  145  A    between atoms: _332  and  _333
REMARK  146  A    between atoms: _333  and  _334
REMARK  147  A    between atoms: _334  and  _335
REMARK  148  A    between atoms: _335  and  _336
REMARK  149  A    between atoms: _340  and  _342
REMARK  150  A    between atoms: _342  and  _343
REMARK  151  A    between atoms: _342  and  _345
REMARK  152  A    between atoms: _345  and  _346
REMARK  153  A    between atoms: _352  and  _354
REMARK  154  A    between atoms: _354  and  _355
REMARK  155  A    between atoms: _354  and  _357
REMARK  156  A    between atoms: _357  and  _358
REMARK  157  A    between atoms: _363  and  _365
REMARK  158  A    between atoms: _365  and  _366
REMARK  159  A    between atoms: _365  and  _368
REMARK  160  A    between atoms: _368  and  _369
REMARK  161  A    between atoms: _369  and  _370
REMARK  162  A    between atoms: _370  and  _371
REMARK  163  A    between atoms: _371  and  _372
REMARK  164  A    between atoms: _377  and  _378
REMARK  165  A    between atoms: _383  and  _385
REMARK  166  A    between atoms: _385  and  _386
REMARK  167  A    between atoms: _385  and  _388
REMARK  168  A    between atoms: _388  and  _389
REMARK  169  A    between atoms: _389  and  _390
REMARK  170  A    between atoms: _395  and  _397
REMARK  171  A    between atoms: _397  and  _398
REMARK  172  A    between atoms: _397  and  _400
REMARK  173  A    between atoms: _400  and  _401
REMARK  174  A    between atoms: _406  and  _408
REMARK  175  A    between atoms: _408  and  _409
REMARK  176  A    between atoms: _408  and  _411
REMARK  177  A    between atoms: _411  and  _412
REMARK  178  A    between atoms: _415  and  _417
REMARK  179  A    between atoms: _417  and  _418
REMARK  180  A    between atoms: _417  and  _420
REMARK  181  A    between atoms: _420  and  _421
REMARK  182  A    between atoms: _424  and  _426
REMARK  183  A    between atoms: _426  and  _427
REMARK  184  A    between atoms: _426  and  _429
REMARK  185  A    between atoms: _429  and  _430
REMARK  186  A    between atoms: _433  and  _435
REMARK  187  A    between atoms: _435  and  _436
REMARK  188  A    between atoms: _435  and  _438
REMARK  189  A    between atoms: _438  and  _439
REMARK  190  A    between atoms: _439  and  _440
REMARK  191  A    between atoms: _440  and  _441
REMARK  192  A    between atoms: _441  and  _442
REMARK  193  A    between atoms: _446  and  _448
REMARK  194  A    between atoms: _448  and  _449
REMARK  195  A    between atoms: _448  and  _451
REMARK  196  A    between atoms: _451  and  _452
REMARK  197  A    between atoms: _455  and  _457
REMARK  198  A    between atoms: _457  and  _458
REMARK  199  A    between atoms: _461  and  _463
REMARK  200  A    between atoms: _463  and  _464
REMARK  201  A    between atoms: _463  and  _466
REMARK  202  A    between atoms: _466  and  _467
REMARK  203  A    between atoms: _470  and  _472
REMARK  204  A    between atoms: _472  and  _473
REMARK  205  A    between atoms: _472  and  _475
REMARK  206  A    between atoms: _475  and  _476
REMARK  207  A    between atoms: _482  and  _484
REMARK  208  A    between atoms: _484  and  _485
REMARK  209  A    between atoms: _484  and  _487
REMARK  210  A    between atoms: _487  and  _488
REMARK  211  A    between atoms: _491  and  _493
REMARK  212  A    between atoms: _493  and  _494
REMARK  213  A    between atoms: _493  and  _496
REMARK  214  A    between atoms: _496  and  _497
REMARK  215  A    between atoms: _500  and  _502
REMARK  216  A    between atoms: _502  and  _503
REMARK  217  A    between atoms: _502  and  _505
REMARK  218  A    between atoms: _505  and  _506
REMARK                            x       y       z     vdW  Elec       q    Type
REMARK                         _______ _______ _______ _____ _____    ______ ____
ROOT
ATOM      1  CA  TYR A   8     -10.661  11.345  21.810  0.00  0.00    +0.153 C 
ENDROOT
BRANCH   1   2
ATOM      2  C   TYR A   8     -10.587  12.127  23.114  0.00  0.00    +0.241 C 
ATOM      3  N   GLY A   9      -9.451  12.007  23.793  0.00  0.00    -0.295 N 
ATOM      4  H   GLY A   9      -8.679  11.421  23.416  0.00  0.00    +0.150 HD
ATOM      5  O   TYR A   8     -11.539  12.807  23.505  0.00  0.00    -0.273 OA
BRANCH   3   6
ATOM      6  CA  GLY A   9      -9.290  12.691  25.054  0.00  0.00    +0.176 C 
BRANCH   6   7
ATOM      7  C   GLY A   9      -7.872  12.728  25.571  0.00  0.00    +0.243 C 
ATOM      8  N   VAL A  10      -7.751  12.860  26.887  0.00  0.00    -0.297 N 
ATOM      9  H   VAL A  10      -8.611  12.907  27.470  0.00  0.00    +0.150 HD
ATOM     10  O   GLY A   9      -6.914  12.641  24.806  0.00  0.00    -0.273 OA
BRANCH   8  11
ATOM     11  CA  VAL A  10      -6.456  12.941  27.538  0.00  0.00    +0.149 C 
BRANCH  11  12
ATOM     12  C   VAL A  10      -5.988  11.575  28.027  0.00  0.00    +0.241 C 
ATOM     13  O   VAL A  10      -6.789  10.654  28.221  0.00  0.00    -0.273 OA
ATOM     14  N   VAL A  11      -4.676  11.455  28.210  0.00  0.00    -0.297 N 
ATOM     15  H   VAL A  11      -4.066  12.272  28.004  0.00  0.00    +0.150 HD
BRANCH  14  16
ATOM     16  CA  VAL A  11      -4.062  10.225  28.687  0.00  0.00    +0.149 C 
BRANCH  16  17
ATOM     17  C   VAL A  11      -3.346  10.494  29.999  0.00  0.00    +0.241 C 
ATOM     18  N   TYR A  12      -3.577   9.620  30.966  0.00  0.00    -0.297 N 
ATOM     19  H   TYR A  12      -4.201   8.807  30.789  0.00  0.00    +0.150 HD
ATOM     20  O   VAL A  11      -2.590  11.459  30.134  0.00  0.00    -0.273 OA
BRANCH  18  21
ATOM     21  CA  TYR A  12      -2.967   9.787  32.268  0.00  0.00    +0.153 C 
BRANCH  21  22
ATOM     22  C   TYR A  12      -2.241   8.547  32.735  0.00  0.00    +0.241 C 
ATOM     23  N   LYS A  13      -1.182   8.768  33.494  0.00  0.00    -0.297 N 
ATOM     24  H   LYS A  13      -0.865   9.744  33.663  0.00  0.00    +0.150 HD
ATOM     25  O   TYR A  12      -2.607   7.429  32.399  0.00  0.00    -0.273 OA
BRANCH  23  26
ATOM     26  CA  LYS A  13      -0.461   7.669  34.091  0.00  0.00    +0.149 C 
BRANCH  26  27
ATOM     27  C   LYS A  13      -1.329   7.556  35.335  0.00  0.00    +0.241 C 
ATOM     28  O   LYS A  13      -1.744   8.583  35.897  0.00  0.00    -0.273 OA
ATOM     29  N   ALA A  14      -1.633   6.337  35.760  0.00  0.00    -0.298 N 
ATOM     30  H   ALA A  14      -1.267   5.500  35.263  0.00  0.00    +0.150 HD
BRANCH  29  31
ATOM     31  CA  ALA A  14      -2.481   6.185  36.926  0.00  0.00    +0.137 C 
ATOM     32  CB  ALA A  14      -3.948   6.144  36.502  0.00  0.00    +0.030 C 
BRANCH  31  33
ATOM     33  C   ALA A  14      -2.135   4.940  37.697  0.00  0.00    +0.227 C 
ATOM     34  O   ALA A  14      -1.733   3.929  37.119  0.00  0.00    -0.286 OA
ENDBRANCH  31  33
ENDBRANCH  29  31
ENDBRANCH  26  27
BRANCH  26  35
ATOM     35  CB  LYS A  13       0.955   8.083  34.474  0.00  0.00    +0.029 C 
BRANCH  35  36
ATOM     36  CG  LYS A  13       1.765   6.987  35.165  0.00  0.00    +0.000 C 
BRANCH  36  37
ATOM     37  CD  LYS A  13       3.096   7.540  35.677  0.00  0.00    -0.024 C 
BRANCH  37  38
ATOM     38  CE  LYS A  13       4.056   6.433  36.031  0.00  0.00    -0.086 C 
BRANCH  38  39
ATOM     39  NZ  LYS A  13       5.299   6.947  36.673  0.00  0.00    +0.380 N 
ATOM     40  HZ1 LYS A  13       5.052   7.453  37.548  0.00  0.00    -0.089 HD
ATOM     41  HZ2 LYS A  13       5.927   6.149  36.898  0.00  0.00    -0.089 HD
ATOM     42  HZ3 LYS A  13       5.782   7.597  36.020  0.00  0.00    -0.089 HD
ENDBRANCH  38  39
ENDBRANCH  37  38
ENDBRANCH  36  37
ENDBRANCH  35  36
ENDBRANCH  26  35
ENDBRANCH  23  26
ENDBRANCH  21  22
BRANCH  21  43
ATOM     43  CB  TYR A  12      -4.042  10.145  33.305  0.00  0.00    +0.055 C 
BRANCH  43  44
ATOM     44  CG  TYR A  12      -4.581  11.549  33.199  0.00  0.00    -0.020 A 
ATOM     45  CD2 TYR A  12      -3.867  12.630  33.715  0.00  0.00    -0.001 A 
ATOM     46  CE2 TYR A  12      -4.352  13.943  33.607  0.00  0.00    +0.036 A 
ATOM     47  CZ  TYR A  12      -5.560  14.175  32.978  0.00  0.00    +0.134 A 
ATOM     48  CE1 TYR A  12      -6.293  13.112  32.451  0.00  0.00    +0.036 A 
ATOM     49  CD1 TYR A  12      -5.799  11.805  32.567  0.00  0.00    -0.001 A 
BRANCH  47  50
ATOM     50  OH  TYR A  12      -6.044  15.463  32.897  0.00  0.00    -0.506 OA
ATOM     51  HH  TYR A  12      -5.399  16.084  33.319  0.00  0.00    +0.292 HD
ENDBRANCH  47  50
ENDBRANCH  43  44
ENDBRANCH  21  43
ENDBRANCH  18  21
ENDBRANCH  16  17
BRANCH  16  52
ATOM     52  CB  VAL A  11      -3.044   9.679  27.688  0.00  0.00    +0.027 C 
ATOM     53  CG2 VAL A  11      -2.417   8.415  28.244  0.00  0.00    +0.002 C 
ATOM     54  CG1 VAL A  11      -3.728   9.403  26.364  0.00  0.00    +0.002 C 
ENDBRANCH  16  52
ENDBRANCH  14  16
ENDBRANCH  11  12
BRANCH  11  55
ATOM     55  CB  VAL A  10      -6.506  13.928  28.740  0.00  0.00    +0.027 C 
ATOM     56  CG2 VAL A  10      -5.116  14.159  29.303  0.00  0.00    +0.002 C 
ATOM     57  CG1 VAL A  10      -7.111  15.249  28.302  0.00  0.00    +0.002 C 
ENDBRANCH  11  55
ENDBRANCH   8  11
ENDBRANCH   6   7
ENDBRANCH   3   6
ENDBRANCH   1   2
BRANCH   1  60
ATOM     58  C   THR A   7      -9.505  13.129  20.603  0.00  0.00    +0.243 C 
ATOM     59  O   THR A   7     -10.192  14.007  21.129  0.00  0.00    -0.273 OA
ATOM     60  N   TYR A   8      -9.658  11.831  20.865  0.00  0.00    -0.297 N 
ATOM     61  H   TYR A   8      -9.045  11.143  20.382  0.00  0.00    +0.150 HD
BRANCH  58  62
ATOM     62  CA  THR A   7      -8.417  13.497  19.586  0.00  0.00    +0.176 C 
BRANCH  62  65
ATOM     63  C   GLY A   6      -6.613  14.058  21.169  0.00  0.00    +0.243 C 
ATOM     64  O   GLY A   6      -7.301  14.840  21.821  0.00  0.00    -0.273 OA
ATOM     65  N   THR A   7      -7.055  13.379  20.111  0.00  0.00    -0.295 N 
ATOM     66  H   THR A   7      -6.398  12.731  19.633  0.00  0.00    +0.150 HD
BRANCH  63  67
ATOM     67  CA  GLY A   6      -5.173  13.807  21.550  0.00  0.00    +0.176 C 
BRANCH  67  69
ATOM     68  C   GLU A   5      -3.610  14.167  23.344  0.00  0.00    +0.241 C 
ATOM     69  N   GLY A   6      -4.865  14.218  22.905  0.00  0.00    -0.295 N 
ATOM     70  H   GLY A   6      -5.623  14.552  23.533  0.00  0.00    +0.150 HD
ATOM     71  O   GLU A   5      -2.672  13.779  22.655  0.00  0.00    -0.273 OA
BRANCH  68  72
ATOM     72  CA  GLU A   5      -3.365  14.601  24.767  0.00  0.00    +0.149 C 
BRANCH  72  75
ATOM     73  C   GLY A   4      -2.071  13.315  26.390  0.00  0.00    +0.243 C 
ATOM     74  O   GLY A   4      -2.919  13.443  27.273  0.00  0.00    -0.273 OA
ATOM     75  N   GLU A   5      -2.200  13.840  25.178  0.00  0.00    -0.297 N 
ATOM     76  H   GLU A   5      -1.431  13.700  24.492  0.00  0.00    +0.150 HD
BRANCH  73  77
ATOM     77  CA  GLY A   4      -0.781  12.553  26.630  0.00  0.00    +0.176 C 
BRANCH  77  79
ATOM     78  C   ILE A   3       0.673  11.876  28.436  0.00  0.00    +0.241 C 
ATOM     79  N   GLY A   4      -0.527  12.279  28.029  0.00  0.00    -0.295 N 
ATOM     80  H   GLY A   4      -1.292  12.399  28.723  0.00  0.00    +0.150 HD
ATOM     81  O   ILE A   3       1.627  11.721  27.671  0.00  0.00    -0.273 OA
BRANCH  78  82
ATOM     82  CA  ILE A   3       0.814  11.607  29.932  0.00  0.00    +0.149 C 
BRANCH  82  85
ATOM     83  C   LYS A   2       0.091  13.458  31.351  0.00  0.00    +0.241 C 
ATOM     84  O   LYS A   2       1.161  14.048  31.264  0.00  0.00    -0.273 OA
ATOM     85  N   ILE A   3      -0.165  12.312  30.739  0.00  0.00    -0.297 N 
ATOM     86  H   ILE A   3      -1.113  11.897  30.841  0.00  0.00    +0.150 HD
BRANCH  83  87
ATOM     87  CA  LYS A   2      -1.042  14.006  32.188  0.00  0.00    +0.149 C 
BRANCH  87  90
ATOM     88  C   GLU A   1      -0.235  12.902  34.184  0.00  0.00    +0.238 C 
ATOM     89  O   GLU A   1      -0.378  11.790  33.674  0.00  0.00    -0.274 OA
ATOM     90  N   LYS A   2      -0.537  14.034  33.549  0.00  0.00    -0.297 N 
ATOM     91  H   LYS A   2      -0.410  14.946  34.033  0.00  0.00    +0.150 HD
BRANCH  88  92
ATOM     92  CA  GLU A   1       0.303  13.045  35.603  0.00  0.00    +0.145 C 
BRANCH  92  93
ATOM     93  N   GLU A   1      -0.170  11.986  36.503  0.00  0.00    -0.238 NA
ATOM     94  H   GLU A   1      -0.686  11.176  36.103  0.00  0.00    +0.142 HD
ENDBRANCH  92  93
BRANCH  92  95
ATOM     95  CB  GLU A   1       1.836  13.083  35.546  0.00  0.00    +0.038 C 
BRANCH  95  96
ATOM     96  CG  GLU A   1       2.474  11.942  34.773  0.00  0.00    +0.116 C 
BRANCH  96  97
ATOM     97  CD  GLU A   1       3.982  12.095  34.653  0.00  0.00    +0.365 C 
ATOM     98  OE2 GLU A   1       4.533  13.050  35.238  0.00  0.00    -0.246 OA
ATOM     99  OE1 GLU A   1       4.623  11.262  33.976  0.00  0.00    -0.246 OA
ENDBRANCH  96  97
ENDBRANCH  95  96
ENDBRANCH  92  95
ENDBRANCH  88  92
ENDBRANCH  87  90
BRANCH  87 100
ATOM    100  CB  LYS A   2      -1.443  15.402  31.694  0.00  0.00    +0.029 C 
BRANCH 100 101
ATOM    101  CG  LYS A   2      -2.113  15.371  30.317  0.00  0.00    +0.000 C 
BRANCH 101 102
ATOM    102  CD  LYS A   2      -2.418  16.758  29.765  0.00  0.00    -0.024 C 
BRANCH 102 103
ATOM    103  CE  LYS A   2      -3.480  17.470  30.586  0.00  0.00    -0.086 C 
BRANCH 103 104
ATOM    104  NZ  LYS A   2      -3.840  18.798  30.003  0.00  0.00    +0.380 N 
ATOM    105  HZ1 LYS A   2      -4.567  19.249  30.594  0.00  0.00    -0.089 HD
ATOM    106  HZ2 LYS A   2      -2.994  19.402  29.971  0.00  0.00    -0.089 HD
ATOM    107  HZ3 LYS A   2      -4.209  18.664  29.040  0.00  0.00    -0.089 HD
ENDBRANCH 103 104
ENDBRANCH 102 103
ENDBRANCH 101 102
ENDBRANCH 100 101
ENDBRANCH  87 100
ENDBRANCH  83  87
ENDBRANCH  82  85
BRANCH  82 108
ATOM    108  CB  ILE A   3       0.690  10.090  30.239  0.00  0.00    +0.027 C 
ATOM    109  CG2 ILE A   3       0.872   9.268  29.001  0.00  0.00    +0.002 C 
BRANCH 108 110
ATOM    110  CG1 ILE A   3       1.643   9.721  31.379  0.00  0.00    +0.002 C 
ATOM    111  CD1 ILE A   3       3.070  10.196  31.181  0.00  0.00    +0.000 C 
ENDBRANCH 108 110
ENDBRANCH  82 108
ENDBRANCH  78  82
ENDBRANCH  77  79
ENDBRANCH  73  77
ENDBRANCH  72  75
BRANCH  72 112
ATOM    112  CB  GLU A   5      -3.075  16.100  24.802  0.00  0.00    +0.041 C 
BRANCH 112 113
ATOM    113  CG  GLU A   5      -2.983  16.702  26.198  0.00  0.00    +0.116 C 
BRANCH 113 114
ATOM    114  CD  GLU A   5      -2.709  18.199  26.170  0.00  0.00    +0.365 C 
ATOM    115  OE2 GLU A   5      -3.637  18.988  26.461  0.00  0.00    -0.246 OA
ATOM    116  OE1 GLU A   5      -1.566  18.588  25.847  0.00  0.00    -0.246 OA
ENDBRANCH 113 114
ENDBRANCH 112 113
ENDBRANCH  72 112
ENDBRANCH  68  72
ENDBRANCH  67  69
ENDBRANCH  63  67
ENDBRANCH  62  65
BRANCH  62 117
ATOM    117  CB  THR A   7      -8.601  12.603  18.314  0.00  0.00    +0.137 C 
ATOM    118  CG2 THR A   7     -10.064  12.627  17.838  0.00  0.00    +0.034 C 
BRANCH 117 119
ATOM    119  OG1 THR A   7      -7.738  13.073  17.262  0.00  0.00    -0.382 OA
ATOM    120  HG1 THR A   7      -7.858  12.505  16.460  0.00  0.00    +0.210 HD
ENDBRANCH 117 119
ENDBRANCH  62 117
ENDBRANCH  58  62
ENDBRANCH   1  60
BRANCH   1 121
ATOM    121  CB  TYR A   8     -10.432   9.873  22.156  0.00  0.00    +0.055 C 
BRANCH 121 122
ATOM    122  CG  TYR A   8      -9.876   9.016  21.052  0.00  0.00    -0.028 A 
ATOM    123  CD2 TYR A   8      -8.630   8.402  21.198  0.00  0.00    +0.017 A 
ATOM    124  CE2 TYR A   8      -8.118   7.565  20.208  0.00  0.00    +0.028 A 
ATOM    125  CZ  TYR A   8      -8.856   7.338  19.056  0.00  0.00    +0.133 A 
ATOM    126  CE1 TYR A   8     -10.099   7.938  18.880  0.00  0.00    +0.036 A 
ATOM    127  CD1 TYR A   8     -10.602   8.777  19.882  0.00  0.00    -0.002 A 
BRANCH 125 128
ATOM    128  OH  TYR A   8      -8.334   6.512  18.091  0.00  0.00    -0.506 OA
ATOM    129  HH  TYR A   8      -7.474   6.883  17.770  0.00  0.00    +0.292 HD
ENDBRANCH 125 128
ENDBRANCH 121 122
ENDBRANCH   1 121
TORSDOF 56
REMARK  Name = ../refined-set-2016/1pxn/1pxn_pocket.pdb
REMARK  218 active torsions:
REMARK  status: ('A' for Active; 'I' for Inactive)
REMARK    1  A    between atoms: _1  and  _3
REMARK    2  A    between atoms: _3  and  _4
REMARK    3  A    between atoms: _3  and  _6
REMARK    4  A    between atoms: _6  and  _7
REMARK    5  A    between atoms: _7  and  _8
REMARK    6  A    between atoms: _11  and  _13
REMARK    7  A    between atoms: _13  and  _14
REMARK    8  A    between atoms: _13  and  _16
REMARK    9  A    between atoms: _16  and  _17
REMARK   10  A    between atoms: _17  and  _18
REMARK   11  A    between atoms: _18  and  _19
REMARK   12  A    between atoms: _19  and  _20
REMARK   13  A    between atoms: _24  and  _26
REMARK   14  A    between atoms: _26  and  _27
REMARK   15  A    between atoms: _26  and  _29
REMARK   16  A    between atoms: _29  and  _30
REMARK   17  A    between atoms: _33  and  _35
REMARK   18  A    between atoms: _35  and  _36
REMARK   19  A    between atoms: _38  and  _40
REMARK   20  A    between atoms: _40  and  _41
REMARK   21  A    between atoms: _40  and  _43
REMARK   22  A    between atoms: _43  and  _44
REMARK   23  A    between atoms: _44  and  _45
REMARK   24  A    between atoms: _48  and  _50
REMARK   25  A    between atoms: _50  and  _51
REMARK   26  A    between atoms: _53  and  _55
REMARK   27  A    between atoms: _55  and  _56
REMARK   28  A    between atoms: _55  and  _58
REMARK   29  A    between atoms: _58  and  _59
REMARK   30  A    between atoms: _62  and  _64
REMARK   31  A    between atoms: _64  and  _65
REMARK   32  A    between atoms: _64  and  _67
REMARK   33  A    between atoms: _67  and  _68
REMARK   34  A    between atoms: _73  and  _74
REMARK   35  A    between atoms: _76  and  _78
REMARK   36  A    between atoms: _78  and  _79
REMARK   37  A    between atoms: _81  and  _83
REMARK   38  A    between atoms: _83  and  _84
REMARK   39  A    between atoms: _83  and  _86
REMARK   40  A    between atoms: _89  and  _91
REMARK   41  A    between atoms: _91  and  _92
REMARK   42  A    between atoms: _91  and  _94
REMARK   43  A    between atoms: _97  and  _99
REMARK   44  A    between atoms: _99  and  _100
REMARK   45  A    between atoms: _99  and  _102
REMARK   46  A    between atoms: _102  and  _103
REMARK   47  A    between atoms: _108  and  _109
REMARK   48  A    between atoms: _111  and  _113
REMARK   49  A    between atoms: _113  and  _114
REMARK   50  A    between atoms: _113  and  _116
REMARK   51  A    between atoms: _116  and  _117
REMARK   52  A    between atoms: _117  and  _118
REMARK   53  A    between atoms: _118  and  _119
REMARK   54  A    between atoms: _119  and  _120
REMARK   55  A    between atoms: _124  and  _126
REMARK   56  A    between atoms: _126  and  _127
REMARK   57  A    between atoms: _130  and  _132
REMARK   58  A    between atoms: _132  and  _133
REMARK   59  A    between atoms: _132  and  _135
REMARK   60  A    between atoms: _138  and  _140
REMARK   61  A    between atoms: _140  and  _141
REMARK   62  A    between atoms: _140  and  _143
REMARK   63  A    between atoms: _146  and  _148
REMARK   64  A    between atoms: _148  and  _149
REMARK   65  A    between atoms: _152  and  _154
REMARK   66  A    between atoms: _154  and  _155
REMARK   67  A    between atoms: _154  and  _157
REMARK   68  A    between atoms: _157  and  _158
REMARK   69  A    between atoms: _161  and  _163
REMARK   70  A    between atoms: _163  and  _164
REMARK   71  A    between atoms: _163  and  _166
REMARK   72  A    between atoms: _166  and  _167
REMARK   73  A    between atoms: _167  and  _168
REMARK   74  A    between atoms: _168  and  _169
REMARK   75  A    between atoms: _169  and  _170
REMARK   76  A    between atoms: _174  and  _176
REMARK   77  A    between atoms: _176  and  _177
REMARK   78  A    between atoms: _176  and  _179
REMARK   79  A    between atoms: _182  and  _184
REMARK   80  A    between atoms: _184  and  _185
REMARK   81  A    between atoms: _184  and  _187
REMARK   82  A    between atoms: _187  and  _188
REMARK   83  A    between atoms: _188  and  _189
REMARK   84  A    between atoms: _189  and  _190
REMARK   85  A    between atoms: _190  and  _191
REMARK   86  A    between atoms: _195  and  _197
REMARK   87  A    between atoms: _197  and  _198
REMARK   88  A    between atoms: _197  and  _200
REMARK   89  A    between atoms: _200  and  _201
REMARK   90  A    between atoms: _204  and  _206
REMARK   91  A    between atoms: _206  and  _207
REMARK   92  A    between atoms: _206  and  _209
REMARK   93  A    between atoms: _209  and  _210
REMARK   94  A    between atoms: _213  and  _215
REMARK   95  A    between atoms: _215  and  _216
REMARK   96  A    between atoms: _215  and  _218
REMARK   97  A    between atoms: _218  and  _219
REMARK   98  A    between atoms: _222  and  _224
REMARK   99  A    between atoms: _224  and  _225
REMARK  100  A    between atoms: _224  and  _227
REMARK  101  A    between atoms: _230  and  _232
REMARK  102  A    between atoms: _232  and  _233
REMARK  103  A    between atoms: _232  and  _235
REMARK  104  A    between atoms: _235  and  _236
REMARK  105  A    between atoms: _242  and  _244
REMARK  106  A    between atoms: _244  and  _245
REMARK  107  A    between atoms: _244  and  _247
REMARK  108  A    between atoms: _247  and  _248
REMARK  109  A    between atoms: _248  and  _249
REMARK  110  A    between atoms: _252  and  _254
REMARK  111  A    between atoms: _254  and  _255
REMARK  112  A    between atoms: _254  and  _257
REMARK  113  A    between atoms: _257  and  _258
REMARK  114  A    between atoms: _264  and  _266
REMARK  115  A    between atoms: _266  and  _267
REMARK  116  A    between atoms: _266  and  _269
REMARK  117  A    between atoms: _269  and  _270
REMARK  118  A    between atoms: _273  and  _275
REMARK  119  A    between atoms: _275  and  _276
REMARK  120  A    between atoms: _275  and  _278
REMARK  121  A    between atoms: _278  and  _279
REMARK  122  A    between atoms: _284  and  _286
REMARK  123  A    between atoms: _286  and  _287
REMARK  124  A    between atoms: _286  and  _289
REMARK  125  A    between atoms: _289  and  _290
REMARK  126  A    between atoms: _290  and  _291
REMARK  127  A    between atoms: _296  and  _298
REMARK  128  A    between atoms: _298  and  _299
REMARK  129  A    between atoms: _298  and  _301
REMARK  130  A    between atoms: _301  and  _302
REMARK  131  A    between atoms: _305  and  _307
REMARK  132  A    between atoms: _307  and  _308
REMARK  133  A    between atoms: _307  and  _310
REMARK  134  A    between atoms: _310  and  _311
REMARK  135  A    between atoms: _314  and  _316
REMARK  136  A    between atoms: _316  and  _317
REMARK  137  A    between atoms: _316  and  _319
REMARK  138  A    between atoms: _319  and  _320
REMARK  139  A    between atoms: _320  and  _321
REMARK  140  A    between atoms: _321  and  _322
REMARK  141  A    between atoms: _322  and  _323
REMARK  142  A    between atoms: _327  and  _329
REMARK  143  A    between atoms: _329  and  _330
REMARK  144  A    between atoms: _329  and  _332
REMARK  145  A    between atoms: _332  and  _333
REMARK  146  A    between atoms: _333  and  _334
REMARK  147  A    between atoms: _334  and  _335
REMARK  148  A    between atoms: _335  and  _336
REMARK  149  A    between atoms: _340  and  _342
REMARK  150  A    between atoms: _342  and  _343
REMARK  151  A    between atoms: _342  and  _345
REMARK  152  A    between atoms: _345  and  _346
REMARK  153  A    between atoms: _352  and  _354
REMARK  154  A    between atoms: _354  and  _355
REMARK  155  A    between atoms: _354  and  _357
REMARK  156  A    between atoms: _357  and  _358
REMARK  157  A    between atoms: _363  and  _365
REMARK  158  A    between atoms: _365  and  _366
REMARK  159  A    between atoms: _365  and  _368
REMARK  160  A    between atoms: _368  and  _369
REMARK  161  A    between atoms: _369  and  _370
REMARK  162  A    between atoms: _370  and  _371
REMARK  163  A    between atoms: _371  and  _372
REMARK  164  A    between atoms: _377  and  _378
REMARK  165  A    between atoms: _383  and  _385
REMARK  166  A    between atoms: _385  and  _386
REMARK  167  A    between atoms: _385  and  _388
REMARK  168  A    between atoms: _388  and  _389
REMARK  169  A    between atoms: _389  and  _390
REMARK  170  A    between atoms: _395  and  _397
REMARK  171  A    between atoms: _397  and  _398
REMARK  172  A    between atoms: _397  and  _400
REMARK  173  A    between atoms: _400  and  _401
REMARK  174  A    between atoms: _406  and  _408
REMARK  175  A    between atoms: _408  and  _409
REMARK  176  A    between atoms: _408  and  _411
REMARK  177  A    between atoms: _411  and  _412
REMARK  178  A    between atoms: _415  and  _417
REMARK  179  A    between atoms: _417  and  _418
REMARK  180  A    between atoms: _417  and  _420
REMARK  181  A    between atoms: _420  and  _421
REMARK  182  A    between atoms: _424  and  _426
REMARK  183  A    between atoms: _426  and  _427
REMARK  184  A    between atoms: _426  and  _429
REMARK  185  A    between atoms: _429  and  _430
REMARK  186  A    between atoms: _433  and  _435
REMARK  187  A    between atoms: _435  and  _436
REMARK  188  A    between atoms: _435  and  _438
REMARK  189  A    between atoms: _438  and  _439
REMARK  190  A    between atoms: _439  and  _440
REMARK  191  A    between atoms: _440  and  _441
REMARK  192  A    between atoms: _441  and  _442
REMARK  193  A    between atoms: _446  and  _448
REMARK  194  A    between atoms: _448  and  _449
REMARK  195  A    between atoms: _448  and  _451
REMARK  196  A    between atoms: _451  and  _452
REMARK  197  A    between atoms: _455  and  _457
REMARK  198  A    between atoms: _457  and  _458
REMARK  199  A    between atoms: _461  and  _463
REMARK  200  A    between atoms: _463  and  _464
REMARK  201  A    between atoms: _463  and  _466
REMARK  202  A    between atoms: _466  and  _467
REMARK  203  A    between atoms: _470  and  _472
REMARK  204  A    between atoms: _472  and  _473
REMARK  205  A    between atoms: _472  and  _475
REMARK  206  A    between atoms: _475  and  _476
REMARK  207  A    between atoms: _482  and  _484
REMARK  208  A    between atoms: _484  and  _485
REMARK  209  A    between atoms: _484  and  _487
REMARK  210  A    between atoms: _487  and  _488
REMARK  211  A    between atoms: _491  and  _493
REMARK  212  A    between atoms: _493  and  _494
REMARK  213  A    between atoms: _493  and  _496
REMARK  214  A    between atoms: _496  and  _497
REMARK  215  A    between atoms: _500  and  _502
REMARK  216  A    between atoms: _502  and  _503
REMARK  217  A    between atoms: _502  and  _505
REMARK  218  A    between atoms: _505  and  _506
REMARK                            x       y       z     vdW  Elec       q    Type
REMARK                         _______ _______ _______ _____ _____    ______ ____
ROOT
ATOM      1  C   ALA A   3      -3.900   4.489  31.233  0.00  0.00    +0.241 C 
ATOM      2  N   LEU A   4      -4.465   5.645  31.565  0.00  0.00    -0.297 N 
ATOM      3  H   LEU A   4      -3.869   6.429  31.899  0.00  0.00    +0.150 HD
ATOM      4  O   ALA A   3      -4.546   3.507  30.850  0.00  0.00    -0.273 OA
ENDROOT
BRANCH   1   5
ATOM      5  CA  ALA A   3      -2.389   4.404  31.401  0.00  0.00    +0.149 C 
ATOM      6  CB  ALA A   3      -1.674   4.291  30.053  0.00  0.00    +0.031 C 
BRANCH   5   9
ATOM      7  C   VAL A   2      -1.641   3.201  33.355  0.00  0.00    +0.241 C 
ATOM      8  O   VAL A   2      -1.177   4.227  33.879  0.00  0.00    -0.273 OA
ATOM      9  N   ALA A   3      -2.215   3.190  32.165  0.00  0.00    -0.297 N 
ATOM     10  H   ALA A   3      -2.549   2.288  31.770  0.00  0.00    +0.150 HD
BRANCH   7  11
ATOM     11  CA  VAL A   2      -1.569   1.848  34.044  0.00  0.00    +0.148 C 
BRANCH  11  13
ATOM     12  C   VAL A   1      -0.033   1.319  35.814  0.00  0.00    +0.238 C 
ATOM     13  N   VAL A   2      -1.029   2.060  35.363  0.00  0.00    -0.297 N 
ATOM     14  H   VAL A   2      -1.429   2.806  35.968  0.00  0.00    +0.150 HD
ATOM     15  O   VAL A   1       0.458   0.393  35.173  0.00  0.00    -0.274 OA
BRANCH  12  16
ATOM     16  CA  VAL A   1       0.438   1.642  37.211  0.00  0.00    +0.145 C 
BRANCH  16  17
ATOM     17  CB  VAL A   1       1.830   2.351  37.161  0.00  0.00    +0.025 C 
ATOM     18  CG2 VAL A   1       2.536   2.206  38.493  0.00  0.00    +0.002 C 
ATOM     19  CG1 VAL A   1       2.666   1.812  36.044  0.00  0.00    +0.002 C 
ENDBRANCH  16  17
BRANCH  16  20
ATOM     20  N   VAL A   1       0.463   0.361  37.890  0.00  0.00    -0.238 NA
ATOM     21  H   VAL A   1       1.290  -0.261  37.784  0.00  0.00    +0.142 HD
ENDBRANCH  16  20
ENDBRANCH  12  16
ENDBRANCH  11  13
BRANCH  11  22
ATOM     22  CB  VAL A   2      -3.002   1.246  34.111  0.00  0.00    +0.027 C 
ATOM     23  CG2 VAL A   2      -3.908   2.203  34.843  0.00  0.00    +0.002 C 
ATOM     24  CG1 VAL A   2      -2.994  -0.137  34.801  0.00  0.00    +0.002 C 
ENDBRANCH  11  22
ENDBRANCH   7  11
ENDBRANCH   5   9
ENDBRANCH   1   5
BRANCH   2  25
ATOM     25  CA  LEU A   4      -5.903   5.831  31.469  0.00  0.00    +0.149 C 
BRANCH  25  26
ATOM     26  C   LEU A   4      -6.251   6.869  30.449  0.00  0.00    +0.241 C 
ATOM     27  O   LEU A   4      -5.608   7.908  30.386  0.00  0.00    -0.273 OA
ATOM     28  N   LYS A   5      -7.289   6.598  29.669  0.00  0.00    -0.298 N 
ATOM     29  H   LYS A   5      -7.800   5.699  29.785  0.00  0.00    +0.150 HD
BRANCH  28  30
ATOM     30  CA  LYS A   5      -7.721   7.548  28.651  0.00  0.00    +0.137 C 
BRANCH  30  31
ATOM     31  C   LYS A   5      -9.204   7.873  28.794  0.00  0.00    +0.227 C 
ATOM     32  O   LYS A   5     -10.062   7.037  28.540  0.00  0.00    -0.286 OA
ENDBRANCH  30  31
BRANCH  30  33
ATOM     33  CB  LYS A   5      -7.434   7.001  27.251  0.00  0.00    +0.028 C 
BRANCH  33  34
ATOM     34  CG  LYS A   5      -7.787   7.959  26.125  0.00  0.00    +0.004 C 
BRANCH  34  35
ATOM     35  CD  LYS A   5      -7.478   7.353  24.767  0.00  0.00    +0.017 C 
BRANCH  35  36
ATOM     36  CE  LYS A   5      -7.832   8.312  23.641  0.00  0.00    +0.065 C 
BRANCH  36  37
ATOM     37  NZ  LYS A   5      -7.535   7.731  22.303  0.00  0.00    -0.321 NA
ATOM     38  HZ1 LYS A   5      -6.520   7.513  22.239  0.00  0.00    +0.119 HD
ATOM     39  HZ2 LYS A   5      -8.087   6.859  22.175  0.00  0.00    +0.119 HD
ENDBRANCH  36  37
ENDBRANCH  35  36
ENDBRANCH  34  35
ENDBRANCH  33  34
ENDBRANCH  30  33
ENDBRANCH  28  30
ENDBRANCH  25  26
BRANCH  25  40
ATOM     40  CB  LEU A   4      -6.485   6.284  32.802  0.00  0.00    +0.029 C 
BRANCH  40  41
ATOM     41  CG  LEU A   4      -7.157   5.266  33.716  0.00  0.00    +0.002 C 
ATOM     42  CD2 LEU A   4      -7.829   6.029  34.843  0.00  0.00    +0.000 C 
ATOM     43  CD1 LEU A   4      -8.184   4.434  32.938  0.00  0.00    +0.000 C 
ENDBRANCH  40  41
ENDBRANCH  25  40
ENDBRANCH   2  25
TORSDOF 19
REMARK  Name = ../refined-set-2016/1pxn/1pxn_pocket.pdb
REMARK  218 active torsions:
REMARK  status: ('A' for Active; 'I' for Inactive)
REMARK    1  A    between atoms: _1  and  _3
REMARK    2  A    between atoms: _3  and  _4
REMARK    3  A    between atoms: _3  and  _6
REMARK    4  A    between atoms: _6  and  _7
REMARK    5  A    between atoms: _7  and  _8
REMARK    6  A    between atoms: _11  and  _13
REMARK    7  A    between atoms: _13  and  _14
REMARK    8  A    between atoms: _13  and  _16
REMARK    9  A    between atoms: _16  and  _17
REMARK   10  A    between atoms: _17  and  _18
REMARK   11  A    between atoms: _18  and  _19
REMARK   12  A    between atoms: _19  and  _20
REMARK   13  A    between atoms: _24  and  _26
REMARK   14  A    between atoms: _26  and  _27
REMARK   15  A    between atoms: _26  and  _29
REMARK   16  A    between atoms: _29  and  _30
REMARK   17  A    between atoms: _33  and  _35
REMARK   18  A    between atoms: _35  and  _36
REMARK   19  A    between atoms: _38  and  _40
REMARK   20  A    between atoms: _40  and  _41
REMARK   21  A    between atoms: _40  and  _43
REMARK   22  A    between atoms: _43  and  _44
REMARK   23  A    between atoms: _44  and  _45
REMARK   24  A    between atoms: _48  and  _50
REMARK   25  A    between atoms: _50  and  _51
REMARK   26  A    between atoms: _53  and  _55
REMARK   27  A    between atoms: _55  and  _56
REMARK   28  A    between atoms: _55  and  _58
REMARK   29  A    between atoms: _58  and  _59
REMARK   30  A    between atoms: _62  and  _64
REMARK   31  A    between atoms: _64  and  _65
REMARK   32  A    between atoms: _64  and  _67
REMARK   33  A    between atoms: _67  and  _68
REMARK   34  A    between atoms: _73  and  _74
REMARK   35  A    between atoms: _76  and  _78
REMARK   36  A    between atoms: _78  and  _79
REMARK   37  A    between atoms: _81  and  _83
REMARK   38  A    between atoms: _83  and  _84
REMARK   39  A    between atoms: _83  and  _86
REMARK   40  A    between atoms: _89  and  _91
REMARK   41  A    between atoms: _91  and  _92
REMARK   42  A    between atoms: _91  and  _94
REMARK   43  A    between atoms: _97  and  _99
REMARK   44  A    between atoms: _99  and  _100
REMARK   45  A    between atoms: _99  and  _102
REMARK   46  A    between atoms: _102  and  _103
REMARK   47  A    between atoms: _108  and  _109
REMARK   48  A    between atoms: _111  and  _113
REMARK   49  A    between atoms: _113  and  _114
REMARK   50  A    between atoms: _113  and  _116
REMARK   51  A    between atoms: _116  and  _117
REMARK   52  A    between atoms: _117  and  _118
REMARK   53  A    between atoms: _118  and  _119
REMARK   54  A    between atoms: _119  and  _120
REMARK   55  A    between atoms: _124  and  _126
REMARK   56  A    between atoms: _126  and  _127
REMARK   57  A    between atoms: _130  and  _132
REMARK   58  A    between atoms: _132  and  _133
REMARK   59  A    between atoms: _132  and  _135
REMARK   60  A    between atoms: _138  and  _140
REMARK   61  A    between atoms: _140  and  _141
REMARK   62  A    between atoms: _140  and  _143
REMARK   63  A    between atoms: _146  and  _148
REMARK   64  A    between atoms: _148  and  _149
REMARK   65  A    between atoms: _152  and  _154
REMARK   66  A    between atoms: _154  and  _155
REMARK   67  A    between atoms: _154  and  _157
REMARK   68  A    between atoms: _157  and  _158
REMARK   69  A    between atoms: _161  and  _163
REMARK   70  A    between atoms: _163  and  _164
REMARK   71  A    between atoms: _163  and  _166
REMARK   72  A    between atoms: _166  and  _167
REMARK   73  A    between atoms: _167  and  _168
REMARK   74  A    between atoms: _168  and  _169
REMARK   75  A    between atoms: _169  and  _170
REMARK   76  A    between atoms: _174  and  _176
REMARK   77  A    between atoms: _176  and  _177
REMARK   78  A    between atoms: _176  and  _179
REMARK   79  A    between atoms: _182  and  _184
REMARK   80  A    between atoms: _184  and  _185
REMARK   81  A    between atoms: _184  and  _187
REMARK   82  A    between atoms: _187  and  _188
REMARK   83  A    between atoms: _188  and  _189
REMARK   84  A    between atoms: _189  and  _190
REMARK   85  A    between atoms: _190  and  _191
REMARK   86  A    between atoms: _195  and  _197
REMARK   87  A    between atoms: _197  and  _198
REMARK   88  A    between atoms: _197  and  _200
REMARK   89  A    between atoms: _200  and  _201
REMARK   90  A    between atoms: _204  and  _206
REMARK   91  A    between atoms: _206  and  _207
REMARK   92  A    between atoms: _206  and  _209
REMARK   93  A    between atoms: _209  and  _210
REMARK   94  A    between atoms: _213  and  _215
REMARK   95  A    between atoms: _215  and  _216
REMARK   96  A    between atoms: _215  and  _218
REMARK   97  A    between atoms: _218  and  _219
REMARK   98  A    between atoms: _222  and  _224
REMARK   99  A    between atoms: _224  and  _225
REMARK  100  A    between atoms: _224  and  _227
REMARK  101  A    between atoms: _230  and  _232
REMARK  102  A    between atoms: _232  and  _233
REMARK  103  A    between atoms: _232  and  _235
REMARK  104  A    between atoms: _235  and  _236
REMARK  105  A    between atoms: _242  and  _244
REMARK  106  A    between atoms: _244  and  _245
REMARK  107  A    between atoms: _244  and  _247
REMARK  108  A    between atoms: _247  and  _248
REMARK  109  A    between atoms: _248  and  _249
REMARK  110  A    between atoms: _252  and  _254
REMARK  111  A    between atoms: _254  and  _255
REMARK  112  A    between atoms: _254  and  _257
REMARK  113  A    between atoms: _257  and  _258
REMARK  114  A    between atoms: _264  and  _266
REMARK  115  A    between atoms: _266  and  _267
REMARK  116  A    between atoms: _266  and  _269
REMARK  117  A    between atoms: _269  and  _270
REMARK  118  A    between atoms: _273  and  _275
REMARK  119  A    between atoms: _275  and  _276
REMARK  120  A    between atoms: _275  and  _278
REMARK  121  A    between atoms: _278  and  _279
REMARK  122  A    between atoms: _284  and  _286
REMARK  123  A    between atoms: _286  and  _287
REMARK  124  A    between atoms: _286  and  _289
REMARK  125  A    between atoms: _289  and  _290
REMARK  126  A    between atoms: _290  and  _291
REMARK  127  A    between atoms: _296  and  _298
REMARK  128  A    between atoms: _298  and  _299
REMARK  129  A    between atoms: _298  and  _301
REMARK  130  A    between atoms: _301  and  _302
REMARK  131  A    between atoms: _305  and  _307
REMARK  132  A    between atoms: _307  and  _308
REMARK  133  A    between atoms: _307  and  _310
REMARK  134  A    between atoms: _310  and  _311
REMARK  135  A    between atoms: _314  and  _316
REMARK  136  A    between atoms: _316  and  _317
REMARK  137  A    between atoms: _316  and  _319
REMARK  138  A    between atoms: _319  and  _320
REMARK  139  A    between atoms: _320  and  _321
REMARK  140  A    between atoms: _321  and  _322
REMARK  141  A    between atoms: _322  and  _323
REMARK  142  A    between atoms: _327  and  _329
REMARK  143  A    between atoms: _329  and  _330
REMARK  144  A    between atoms: _329  and  _332
REMARK  145  A    between atoms: _332  and  _333
REMARK  146  A    between atoms: _333  and  _334
REMARK  147  A    between atoms: _334  and  _335
REMARK  148  A    between atoms: _335  and  _336
REMARK  149  A    between atoms: _340  and  _342
REMARK  150  A    between atoms: _342  and  _343
REMARK  151  A    between atoms: _342  and  _345
REMARK  152  A    between atoms: _345  and  _346
REMARK  153  A    between atoms: _352  and  _354
REMARK  154  A    between atoms: _354  and  _355
REMARK  155  A    between atoms: _354  and  _357
REMARK  156  A    between atoms: _357  and  _358
REMARK  157  A    between atoms: _363  and  _365
REMARK  158  A    between atoms: _365  and  _366
REMARK  159  A    between atoms: _365  and  _368
REMARK  160  A    between atoms: _368  and  _369
REMARK  161  A    between atoms: _369  and  _370
REMARK  162  A    between atoms: _370  and  _371
REMARK  163  A    between atoms: _371  and  _372
REMARK  164  A    between atoms: _377  and  _378
REMARK  165  A    between atoms: _383  and  _385
REMARK  166  A    between atoms: _385  and  _386
REMARK  167  A    between atoms: _385  and  _388
REMARK  168  A    between atoms: _388  and  _389
REMARK  169  A    between atoms: _389  and  _390
REMARK  170  A    between atoms: _395  and  _397
REMARK  171  A    between atoms: _397  and  _398
REMARK  172  A    between atoms: _397  and  _400
REMARK  173  A    between atoms: _400  and  _401
REMARK  174  A    between atoms: _406  and  _408
REMARK  175  A    between atoms: _408  and  _409
REMARK  176  A    between atoms: _408  and  _411
REMARK  177  A    between atoms: _411  and  _412
REMARK  178  A    between atoms: _415  and  _417
REMARK  179  A    between atoms: _417  and  _418
REMARK  180  A    between atoms: _417  and  _420
REMARK  181  A    between atoms: _420  and  _421
REMARK  182  A    between atoms: _424  and  _426
REMARK  183  A    between atoms: _426  and  _427
REMARK  184  A    between atoms: _426  and  _429
REMARK  185  A    between atoms: _429  and  _430
REMARK  186  A    between atoms: _433  and  _435
REMARK  187  A    between atoms: _435  and  _436
REMARK  188  A    between atoms: _435  and  _438
REMARK  189  A    between atoms: _438  and  _439
REMARK  190  A    between atoms: _439  and  _440
REMARK  191  A    between atoms: _440  and  _441
REMARK  192  A    between atoms: _441  and  _442
REMARK  193  A    between atoms: _446  and  _448
REMARK  194  A    between atoms: _448  and  _449
REMARK  195  A    between atoms: _448  and  _451
REMARK  196  A    between atoms: _451  and  _452
REMARK  197  A    between atoms: _455  and  _457
REMARK  198  A    between atoms: _457  and  _458
REMARK  199  A    between atoms: _461  and  _463
REMARK  200  A    between atoms: _463  and  _464
REMARK  201  A    between atoms: _463  and  _466
REMARK  202  A    between atoms: _466  and  _467
REMARK  203  A    between atoms: _470  and  _472
REMARK  204  A    between atoms: _472  and  _473
REMARK  205  A    between atoms: _472  and  _475
REMARK  206  A    between atoms: _475  and  _476
REMARK  207  A    between atoms: _482  and  _484
REMARK  208  A    between atoms: _484  and  _485
REMARK  209  A    between atoms: _484  and  _487
REMARK  210  A    between atoms: _487  and  _488
REMARK  211  A    between atoms: _491  and  _493
REMARK  212  A    between atoms: _493  and  _494
REMARK  213  A    between atoms: _493  and  _496
REMARK  214  A    between atoms: _496  and  _497
REMARK  215  A    between atoms: _500  and  _502
REMARK  216  A    between atoms: _502  and  _503
REMARK  217  A    between atoms: _502  and  _505
REMARK  218  A    between atoms: _505  and  _506
REMARK                            x       y       z     vdW  Elec       q    Type
REMARK                         _______ _______ _______ _____ _____    ______ ____
ROOT
ATOM      1  C   LYS A   2      -3.704  -3.603  26.397  0.00  0.00    +0.241 C 
ATOM      2  O   LYS A   2      -3.393  -2.830  27.291  0.00  0.00    -0.273 OA
ATOM      3  N   LEU A   3      -4.947  -3.729  25.950  0.00  0.00    -0.297 N 
ATOM      4  H   LEU A   3      -5.144  -4.368  25.154  0.00  0.00    +0.150 HD
ENDROOT
BRANCH   3   5
ATOM      5  CA  LEU A   3      -6.035  -2.986  26.558  0.00  0.00    +0.149 C 
BRANCH   5   6
ATOM      6  C   LEU A   3      -6.563  -3.869  27.682  0.00  0.00    +0.241 C 
ATOM      7  N   LEU A   4      -6.115  -3.593  28.896  0.00  0.00    -0.298 N 
ATOM      8  H   LEU A   4      -5.444  -2.809  29.026  0.00  0.00    +0.150 HD
ATOM      9  O   LEU A   3      -7.338  -4.790  27.454  0.00  0.00    -0.273 OA
BRANCH   7  10
ATOM     10  CA  LEU A   4      -6.541  -4.363  30.051  0.00  0.00    +0.137 C 
BRANCH  10  11
ATOM     11  C   LEU A   4      -8.048  -4.317  30.190  0.00  0.00    +0.227 C 
ATOM     12  O   LEU A   4      -8.698  -5.366  30.228  0.00  0.00    -0.286 OA
ENDBRANCH  10  11
BRANCH  10  13
ATOM     13  CB  LEU A   4      -5.884  -3.823  31.327  0.00  0.00    +0.028 C 
BRANCH  13  14
ATOM     14  CG  LEU A   4      -4.388  -4.088  31.573  0.00  0.00    +0.002 C 
ATOM     15  CD2 LEU A   4      -3.743  -2.793  31.980  0.00  0.00    +0.000 C 
ATOM     16  CD1 LEU A   4      -3.700  -4.671  30.361  0.00  0.00    +0.000 C 
ENDBRANCH  13  14
ENDBRANCH  10  13
ENDBRANCH   7  10
ENDBRANCH   5   6
BRANCH   5  17
ATOM     17  CB  LEU A   3      -7.148  -2.709  25.547  0.00  0.00    +0.029 C 
BRANCH  17  18
ATOM     18  CG  LEU A   3      -8.337  -1.916  26.092  0.00  0.00    +0.002 C 
ATOM     19  CD2 LEU A   3      -7.859  -0.572  26.606  0.00  0.00    +0.000 C 
ATOM     20  CD1 LEU A   3      -9.379  -1.722  24.992  0.00  0.00    +0.000 C 
ENDBRANCH  17  18
ENDBRANCH   5  17
ENDBRANCH   3   5
BRANCH   1  21
ATOM     21  CA  LYS A   2      -2.661  -4.478  25.723  0.00  0.00    +0.149 C 
BRANCH  21  23
ATOM     22  C   VAL A   1      -1.476  -2.880  24.349  0.00  0.00    +0.238 C 
ATOM     23  N   LYS A   2      -1.454  -3.751  25.347  0.00  0.00    -0.297 N 
ATOM     24  H   LYS A   2      -0.569  -3.918  25.867  0.00  0.00    +0.150 HD
ATOM     25  O   VAL A   1      -2.502  -2.630  23.705  0.00  0.00    -0.274 OA
BRANCH  22  26
ATOM     26  CA  VAL A   1      -0.156  -2.186  24.026  0.00  0.00    +0.145 C 
BRANCH  26  27
ATOM     27  CB  VAL A   1      -0.349  -0.663  24.165  0.00  0.00    +0.025 C 
ATOM     28  CG2 VAL A   1      -0.878  -0.332  25.562  0.00  0.00    +0.002 C 
ATOM     29  CG1 VAL A   1       0.963   0.049  23.906  0.00  0.00    +0.002 C 
ENDBRANCH  26  27
BRANCH  26  30
ATOM     30  N   VAL A   1       0.187  -2.546  22.664  0.00  0.00    -0.238 NA
ATOM     31  H   VAL A   1       0.314  -1.792  21.959  0.00  0.00    +0.142 HD
ENDBRANCH  26  30
ENDBRANCH  22  26
ENDBRANCH  21  23
BRANCH  21  32
ATOM     32  CB  LYS A   2      -2.327  -5.649  26.655  0.00  0.00    +0.029 C 
BRANCH  32  33
ATOM     33  CG  LYS A   2      -3.541  -6.487  27.059  0.00  0.00    +0.000 C 
BRANCH  33  34
ATOM     34  CD  LYS A   2      -3.166  -7.507  28.128  0.00  0.00    -0.024 C 
BRANCH  34  35
ATOM     35  CE  LYS A   2      -4.374  -8.315  28.623  0.00  0.00    -0.086 C 
BRANCH  35  36
ATOM     36  NZ  LYS A   2      -4.023  -9.179  29.800  0.00  0.00    +0.380 N 
ATOM     37  HZ1 LYS A   2      -3.688  -8.579  30.581  0.00  0.00    -0.089 HD
ATOM     38  HZ2 LYS A   2      -4.865  -9.708  30.104  0.00  0.00    -0.089 HD
ATOM     39  HZ3 LYS A   2      -3.273  -9.846  29.527  0.00  0.00    -0.089 HD
ENDBRANCH  35  36
ENDBRANCH  34  35
ENDBRANCH  33  34
ENDBRANCH  32  33
ENDBRANCH  21  32
ENDBRANCH   1  21
TORSDOF 18
REMARK  Name = ../refined-set-2016/1pxn/1pxn_pocket.pdb
REMARK  218 active torsions:
REMARK  status: ('A' for Active; 'I' for Inactive)
REMARK    1  A    between atoms: _1  and  _3
REMARK    2  A    between atoms: _3  and  _4
REMARK    3  A    between atoms: _3  and  _6
REMARK    4  A    between atoms: _6  and  _7
REMARK    5  A    between atoms: _7  and  _8
REMARK    6  A    between atoms: _11  and  _13
REMARK    7  A    between atoms: _13  and  _14
REMARK    8  A    between atoms: _13  and  _16
REMARK    9  A    between atoms: _16  and  _17
REMARK   10  A    between atoms: _17  and  _18
REMARK   11  A    between atoms: _18  and  _19
REMARK   12  A    between atoms: _19  and  _20
REMARK   13  A    between atoms: _24  and  _26
REMARK   14  A    between atoms: _26  and  _27
REMARK   15  A    between atoms: _26  and  _29
REMARK   16  A    between atoms: _29  and  _30
REMARK   17  A    between atoms: _33  and  _35
REMARK   18  A    between atoms: _35  and  _36
REMARK   19  A    between atoms: _38  and  _40
REMARK   20  A    between atoms: _40  and  _41
REMARK   21  A    between atoms: _40  and  _43
REMARK   22  A    between atoms: _43  and  _44
REMARK   23  A    between atoms: _44  and  _45
REMARK   24  A    between atoms: _48  and  _50
REMARK   25  A    between atoms: _50  and  _51
REMARK   26  A    between atoms: _53  and  _55
REMARK   27  A    between atoms: _55  and  _56
REMARK   28  A    between atoms: _55  and  _58
REMARK   29  A    between atoms: _58  and  _59
REMARK   30  A    between atoms: _62  and  _64
REMARK   31  A    between atoms: _64  and  _65
REMARK   32  A    between atoms: _64  and  _67
REMARK   33  A    between atoms: _67  and  _68
REMARK   34  A    between atoms: _73  and  _74
REMARK   35  A    between atoms: _76  and  _78
REMARK   36  A    between atoms: _78  and  _79
REMARK   37  A    between atoms: _81  and  _83
REMARK   38  A    between atoms: _83  and  _84
REMARK   39  A    between atoms: _83  and  _86
REMARK   40  A    between atoms: _89  and  _91
REMARK   41  A    between atoms: _91  and  _92
REMARK   42  A    between atoms: _91  and  _94
REMARK   43  A    between atoms: _97  and  _99
REMARK   44  A    between atoms: _99  and  _100
REMARK   45  A    between atoms: _99  and  _102
REMARK   46  A    between atoms: _102  and  _103
REMARK   47  A    between atoms: _108  and  _109
REMARK   48  A    between atoms: _111  and  _113
REMARK   49  A    between atoms: _113  and  _114
REMARK   50  A    between atoms: _113  and  _116
REMARK   51  A    between atoms: _116  and  _117
REMARK   52  A    between atoms: _117  and  _118
REMARK   53  A    between atoms: _118  and  _119
REMARK   54  A    between atoms: _119  and  _120
REMARK   55  A    between atoms: _124  and  _126
REMARK   56  A    between atoms: _126  and  _127
REMARK   57  A    between atoms: _130  and  _132
REMARK   58  A    between atoms: _132  and  _133
REMARK   59  A    between atoms: _132  and  _135
REMARK   60  A    between atoms: _138  and  _140
REMARK   61  A    between atoms: _140  and  _141
REMARK   62  A    between atoms: _140  and  _143
REMARK   63  A    between atoms: _146  and  _148
REMARK   64  A    between atoms: _148  and  _149
REMARK   65  A    between atoms: _152  and  _154
REMARK   66  A    between atoms: _154  and  _155
REMARK   67  A    between atoms: _154  and  _157
REMARK   68  A    between atoms: _157  and  _158
REMARK   69  A    between atoms: _161  and  _163
REMARK   70  A    between atoms: _163  and  _164
REMARK   71  A    between atoms: _163  and  _166
REMARK   72  A    between atoms: _166  and  _167
REMARK   73  A    between atoms: _167  and  _168
REMARK   74  A    between atoms: _168  and  _169
REMARK   75  A    between atoms: _169  and  _170
REMARK   76  A    between atoms: _174  and  _176
REMARK   77  A    between atoms: _176  and  _177
REMARK   78  A    between atoms: _176  and  _179
REMARK   79  A    between atoms: _182  and  _184
REMARK   80  A    between atoms: _184  and  _185
REMARK   81  A    between atoms: _184  and  _187
REMARK   82  A    between atoms: _187  and  _188
REMARK   83  A    between atoms: _188  and  _189
REMARK   84  A    between atoms: _189  and  _190
REMARK   85  A    between atoms: _190  and  _191
REMARK   86  A    between atoms: _195  and  _197
REMARK   87  A    between atoms: _197  and  _198
REMARK   88  A    between atoms: _197  and  _200
REMARK   89  A    between atoms: _200  and  _201
REMARK   90  A    between atoms: _204  and  _206
REMARK   91  A    between atoms: _206  and  _207
REMARK   92  A    between atoms: _206  and  _209
REMARK   93  A    between atoms: _209  and  _210
REMARK   94  A    between atoms: _213  and  _215
REMARK   95  A    between atoms: _215  and  _216
REMARK   96  A    between atoms: _215  and  _218
REMARK   97  A    between atoms: _218  and  _219
REMARK   98  A    between atoms: _222  and  _224
REMARK   99  A    between atoms: _224  and  _225
REMARK  100  A    between atoms: _224  and  _227
REMARK  101  A    between atoms: _230  and  _232
REMARK  102  A    between atoms: _232  and  _233
REMARK  103  A    between atoms: _232  and  _235
REMARK  104  A    between atoms: _235  and  _236
REMARK  105  A    between atoms: _242  and  _244
REMARK  106  A    between atoms: _244  and  _245
REMARK  107  A    between atoms: _244  and  _247
REMARK  108  A    between atoms: _247  and  _248
REMARK  109  A    between atoms: _248  and  _249
REMARK  110  A    between atoms: _252  and  _254
REMARK  111  A    between atoms: _254  and  _255
REMARK  112  A    between atoms: _254  and  _257
REMARK  113  A    between atoms: _257  and  _258
REMARK  114  A    between atoms: _264  and  _266
REMARK  115  A    between atoms: _266  and  _267
REMARK  116  A    between atoms: _266  and  _269
REMARK  117  A    between atoms: _269  and  _270
REMARK  118  A    between atoms: _273  and  _275
REMARK  119  A    between atoms: _275  and  _276
REMARK  120  A    between atoms: _275  and  _278
REMARK  121  A    between atoms: _278  and  _279
REMARK  122  A    between atoms: _284  and  _286
REMARK  123  A    between atoms: _286  and  _287
REMARK  124  A    between atoms: _286  and  _289
REMARK  125  A    between atoms: _289  and  _290
REMARK  126  A    between atoms: _290  and  _291
REMARK  127  A    between atoms: _296  and  _298
REMARK  128  A    between atoms: _298  and  _299
REMARK  129  A    between atoms: _298  and  _301
REMARK  130  A    between atoms: _301  and  _302
REMARK  131  A    between atoms: _305  and  _307
REMARK  132  A    between atoms: _307  and  _308
REMARK  133  A    between atoms: _307  and  _310
REMARK  134  A    between atoms: _310  and  _311
REMARK  135  A    between atoms: _314  and  _316
REMARK  136  A    between atoms: _316  and  _317
REMARK  137  A    between atoms: _316  and  _319
REMARK  138  A    between atoms: _319  and  _320
REMARK  139  A    between atoms: _320  and  _321
REMARK  140  A    between atoms: _321  and  _322
REMARK  141  A    between atoms: _322  and  _323
REMARK  142  A    between atoms: _327  and  _329
REMARK  143  A    between atoms: _329  and  _330
REMARK  144  A    between atoms: _329  and  _332
REMARK  145  A    between atoms: _332  and  _333
REMARK  146  A    between atoms: _333  and  _334
REMARK  147  A    between atoms: _334  and  _335
REMARK  148  A    between atoms: _335  and  _336
REMARK  149  A    between atoms: _340  and  _342
REMARK  150  A    between atoms: _342  and  _343
REMARK  151  A    between atoms: _342  and  _345
REMARK  152  A    between atoms: _345  and  _346
REMARK  153  A    between atoms: _352  and  _354
REMARK  154  A    between atoms: _354  and  _355
REMARK  155  A    between atoms: _354  and  _357
REMARK  156  A    between atoms: _357  and  _358
REMARK  157  A    between atoms: _363  and  _365
REMARK  158  A    between atoms: _365  and  _366
REMARK  159  A    between atoms: _365  and  _368
REMARK  160  A    between atoms: _368  and  _369
REMARK  161  A    between atoms: _369  and  _370
REMARK  162  A    between atoms: _370  and  _371
REMARK  163  A    between atoms: _371  and  _372
REMARK  164  A    between atoms: _377  and  _378
REMARK  165  A    between atoms: _383  and  _385
REMARK  166  A    between atoms: _385  and  _386
REMARK  167  A    between atoms: _385  and  _388
REMARK  168  A    between atoms: _388  and  _389
REMARK  169  A    between atoms: _389  and  _390
REMARK  170  A    between atoms: _395  and  _397
REMARK  171  A    between atoms: _397  and  _398
REMARK  172  A    between atoms: _397  and  _400
REMARK  173  A    between atoms: _400  and  _401
REMARK  174  A    between atoms: _406  and  _408
REMARK  175  A    between atoms: _408  and  _409
REMARK  176  A    between atoms: _408  and  _411
REMARK  177  A    between atoms: _411  and  _412
REMARK  178  A    between atoms: _415  and  _417
REMARK  179  A    between atoms: _417  and  _418
REMARK  180  A    between atoms: _417  and  _420
REMARK  181  A    between atoms: _420  and  _421
REMARK  182  A    between atoms: _424  and  _426
REMARK  183  A    between atoms: _426  and  _427
REMARK  184  A    between atoms: _426  and  _429
REMARK  185  A    between atoms: _429  and  _430
REMARK  186  A    between atoms: _433  and  _435
REMARK  187  A    between atoms: _435  and  _436
REMARK  188  A    between atoms: _435  and  _438
REMARK  189  A    between atoms: _438  and  _439
REMARK  190  A    between atoms: _439  and  _440
REMARK  191  A    between atoms: _440  and  _441
REMARK  192  A    between atoms: _441  and  _442
REMARK  193  A    between atoms: _446  and  _448
REMARK  194  A    between atoms: _448  and  _449
REMARK  195  A    between atoms: _448  and  _451
REMARK  196  A    between atoms: _451  and  _452
REMARK  197  A    between atoms: _455  and  _457
REMARK  198  A    between atoms: _457  and  _458
REMARK  199  A    between atoms: _461  and  _463
REMARK  200  A    between atoms: _463  and  _464
REMARK  201  A    between atoms: _463  and  _466
REMARK  202  A    between atoms: _466  and  _467
REMARK  203  A    between atoms: _470  and  _472
REMARK  204  A    between atoms: _472  and  _473
REMARK  205  A    between atoms: _472  and  _475
REMARK  206  A    between atoms: _475  and  _476
REMARK  207  A    between atoms: _482  and  _484
REMARK  208  A    between atoms: _484  and  _485
REMARK  209  A    between atoms: _484  and  _487
REMARK  210  A    between atoms: _487  and  _488
REMARK  211  A    between atoms: _491  and  _493
REMARK  212  A    between atoms: _493  and  _494
REMARK  213  A    between atoms: _493  and  _496
REMARK  214  A    between atoms: _496  and  _497
REMARK  215  A    between atoms: _500  and  _502
REMARK  216  A    between atoms: _502  and  _503
REMARK  217  A    between atoms: _502  and  _505
REMARK  218  A    between atoms: _505  and  _506
REMARK                            x       y       z     vdW  Elec       q    Type
REMARK                         _______ _______ _______ _____ _____    ______ ____
ROOT
ATOM      1  C   HIS A   7       8.110   5.398  29.351  0.00  0.00    +0.241 C 
ATOM      2  O   HIS A   7       8.530   6.402  29.917  0.00  0.00    -0.273 OA
ATOM      3  N   GLN A   8       7.930   5.347  28.041  0.00  0.00    -0.297 N 
ATOM      4  H   GLN A   8       7.568   4.481  27.594  0.00  0.00    +0.150 HD
ENDROOT
BRANCH   3   5
ATOM      5  CA  GLN A   8       8.243   6.510  27.237  0.00  0.00    +0.149 C 
BRANCH   5   6
ATOM      6  C   GLN A   8       7.639   6.367  25.861  0.00  0.00    +0.241 C 
ATOM      7  O   GLN A   8       7.546   5.255  25.328  0.00  0.00    -0.273 OA
ATOM      8  N   ASP A   9       7.191   7.486  25.291  0.00  0.00    -0.297 N 
ATOM      9  H   ASP A   9       7.229   8.389  25.806  0.00  0.00    +0.150 HD
BRANCH   8  10
ATOM     10  CA  ASP A   9       6.648   7.432  23.941  0.00  0.00    +0.160 C 
BRANCH  10  11
ATOM     11  C   ASP A   9       7.884   7.657  23.100  0.00  0.00    +0.241 C 
ATOM     12  O   ASP A   9       8.903   8.111  23.611  0.00  0.00    -0.273 OA
ATOM     13  N   LEU A  10       7.792   7.333  21.818  0.00  0.00    -0.297 N 
ATOM     14  H   LEU A  10       6.892   6.958  21.456  0.00  0.00    +0.150 HD
BRANCH  13  15
ATOM     15  CA  LEU A  10       8.908   7.486  20.904  0.00  0.00    +0.149 C 
BRANCH  15  16
ATOM     16  C   LEU A  10       9.255   8.958  20.627  0.00  0.00    +0.241 C 
ATOM     17  N   LYS A  11       8.288   9.852  20.820  0.00  0.00    -0.297 N 
ATOM     18  H   LYS A  11       7.353   9.531  21.142  0.00  0.00    +0.150 HD
ATOM     19  O   LEU A  10      10.391   9.276  20.253  0.00  0.00    -0.273 OA
BRANCH  17  20
ATOM     20  CA  LYS A  11       8.518  11.281  20.587  0.00  0.00    +0.149 C 
BRANCH  20  21
ATOM     21  C   LYS A  11       9.494  11.891  21.581  0.00  0.00    +0.241 C 
ATOM     22  N   LYS A  12       9.344  11.541  22.853  0.00  0.00    -0.297 N 
ATOM     23  H   LYS A  12       8.586  10.883  23.124  0.00  0.00    +0.150 HD
ATOM     24  O   LYS A  11      10.369  12.674  21.206  0.00  0.00    -0.273 OA
BRANCH  22  25
ATOM     25  CA  LYS A  12      10.233  12.073  23.863  0.00  0.00    +0.149 C 
BRANCH  25  26
ATOM     26  C   LYS A  12      11.598  11.487  23.569  0.00  0.00    +0.241 C 
ATOM     27  O   LYS A  12      12.584  12.219  23.480  0.00  0.00    -0.273 OA
ATOM     28  N   PHE A  13      11.645  10.166  23.392  0.00  0.00    -0.298 N 
ATOM     29  H   PHE A  13      10.766   9.613  23.455  0.00  0.00    +0.150 HD
BRANCH  28  30
ATOM     30  CA  PHE A  13      12.898   9.481  23.113  0.00  0.00    +0.141 C 
BRANCH  30  31
ATOM     31  C   PHE A  13      13.626  10.089  21.930  0.00  0.00    +0.227 C 
ATOM     32  O   PHE A  13      14.840  10.085  21.890  0.00  0.00    -0.286 OA
ENDBRANCH  30  31
BRANCH  30  33
ATOM     33  CB  PHE A  13      12.662   7.985  22.873  0.00  0.00    +0.054 C 
BRANCH  33  34
ATOM     34  CG  PHE A  13      13.929   7.207  22.590  0.00  0.00    -0.020 A 
ATOM     35  CD2 PHE A  13      14.937   7.128  23.538  0.00  0.00    -0.004 A 
ATOM     36  CE2 PHE A  13      16.126   6.459  23.270  0.00  0.00    -0.000 A 
ATOM     37  CZ  PHE A  13      16.313   5.861  22.049  0.00  0.00    -0.000 A 
ATOM     38  CE1 PHE A  13      15.302   5.930  21.086  0.00  0.00    -0.000 A 
ATOM     39  CD1 PHE A  13      14.126   6.599  21.361  0.00  0.00    -0.004 A 
ENDBRANCH  33  34
ENDBRANCH  30  33
ENDBRANCH  28  30
ENDBRANCH  25  26
BRANCH  25  40
ATOM     40  CB  LYS A  12       9.785  11.654  25.258  0.00  0.00    +0.029 C 
BRANCH  40  41
ATOM     41  CG  LYS A  12      10.092  12.677  26.328  0.00  0.00    +0.000 C 
BRANCH  41  42
ATOM     42  CD  LYS A  12      10.075  12.057  27.721  0.00  0.00    -0.024 C 
BRANCH  42  43
ATOM     43  CE  LYS A  12       8.691  11.519  28.113  0.00  0.00    -0.086 C 
BRANCH  43  44
ATOM     44  NZ  LYS A  12       7.671  12.592  28.314  0.00  0.00    +0.380 N 
ATOM     45  HZ1 LYS A  12       7.985  13.229  29.073  0.00  0.00    -0.089 HD
ATOM     46  HZ2 LYS A  12       6.762  12.160  28.576  0.00  0.00    -0.089 HD
ATOM     47  HZ3 LYS A  12       7.558  13.131  27.432  0.00  0.00    -0.089 HD
ENDBRANCH  43  44
ENDBRANCH  42  43
ENDBRANCH  41  42
ENDBRANCH  40  41
ENDBRANCH  25  40
ENDBRANCH  22  25
ENDBRANCH  20  21
BRANCH  20  48
ATOM     48  CB  LYS A  11       7.194  12.053  20.634  0.00  0.00    +0.029 C 
BRANCH  48  49
ATOM     49  CG  LYS A  11       7.340  13.561  20.558  0.00  0.00    +0.000 C 
BRANCH  49  50
ATOM     50  CD  LYS A  11       8.136  13.974  19.331  0.00  0.00    -0.024 C 
BRANCH  50  51
ATOM     51  CE  LYS A  11       8.111  15.485  19.139  0.00  0.00    -0.086 C 
BRANCH  51  52
ATOM     52  NZ  LYS A  11       9.017  15.874  18.030  0.00  0.00    +0.380 N 
ATOM     53  HZ1 LYS A  11       9.987  15.574  18.255  0.00  0.00    -0.089 HD
ATOM     54  HZ2 LYS A  11       8.991  16.907  17.909  0.00  0.00    -0.089 HD
ATOM     55  HZ3 LYS A  11       8.705  15.413  17.151  0.00  0.00    -0.089 HD
ENDBRANCH  51  52
ENDBRANCH  50  51
ENDBRANCH  49  50
ENDBRANCH  48  49
ENDBRANCH  20  48
ENDBRANCH  17  20
ENDBRANCH  15  16
BRANCH  15  56
ATOM     56  CB  LEU A  10       8.586   6.756  19.604  0.00  0.00    +0.029 C 
BRANCH  56  57
ATOM     57  CG  LEU A  10       9.703   6.666  18.575  0.00  0.00    +0.002 C 
ATOM     58  CD2 LEU A  10      10.762   5.680  19.071  0.00  0.00    +0.000 C 
ATOM     59  CD1 LEU A  10       9.097   6.236  17.204  0.00  0.00    +0.000 C 
ENDBRANCH  56  57
ENDBRANCH  15  56
ENDBRANCH  13  15
ENDBRANCH  10  11
BRANCH  10  60
ATOM     60  CB  ASP A   9       5.583   8.522  23.673  0.00  0.00    +0.143 C 
BRANCH  60  61
ATOM     61  CG  ASP A   9       6.167   9.923  23.611  0.00  0.00    +0.367 C 
ATOM     62  OD2 ASP A   9       7.381  10.095  23.801  0.00  0.00    -0.246 OA
ATOM     63  OD1 ASP A   9       5.410  10.878  23.378  0.00  0.00    -0.246 OA
ENDBRANCH  60  61
ENDBRANCH  10  60
ENDBRANCH   8  10
ENDBRANCH   5   6
BRANCH   5  64
ATOM     64  CB  GLN A   8       9.758   6.670  27.130  0.00  0.00    +0.039 C 
BRANCH  64  65
ATOM     65  CG  GLN A   8      10.218   8.036  26.675  0.00  0.00    +0.087 C 
BRANCH  65  66
ATOM     66  CD  GLN A   8      11.724   8.226  26.838  0.00  0.00    +0.219 C 
ATOM     67  NE2 GLN A   8      12.148   8.712  28.010  0.00  0.00    -0.329 N 
ATOM     68 HE21 GLN A   8      11.460   8.958  28.750  0.00  0.00    +0.145 HD
ATOM     69 HE22 GLN A   8      13.165   8.844  28.181  0.00  0.00    +0.145 HD
ATOM     70  OE1 GLN A   8      12.497   7.919  25.928  0.00  0.00    -0.275 OA
ENDBRANCH  65  66
ENDBRANCH  64  65
ENDBRANCH   5  64
ENDBRANCH   3   5
BRANCH   1  71
ATOM     71  CA  HIS A   7       7.772   4.173  30.169  0.00  0.00    +0.155 C 
BRANCH  71  74
ATOM     72  C   LEU A   6       5.797   2.979  29.516  0.00  0.00    +0.241 C 
ATOM     73  O   LEU A   6       5.131   3.991  29.724  0.00  0.00    -0.273 OA
ATOM     74  N   HIS A   7       7.120   2.978  29.637  0.00  0.00    -0.297 N 
ATOM     75  H   HIS A   7       7.679   2.146  29.360  0.00  0.00    +0.150 HD
BRANCH  72  76
ATOM     76  CA  LEU A   6       5.118   1.680  29.085  0.00  0.00    +0.149 C 
BRANCH  76  79
ATOM     77  C   PHE A   5       3.255   0.800  30.401  0.00  0.00    +0.241 C 
ATOM     78  O   PHE A   5       3.866  -0.222  30.705  0.00  0.00    -0.273 OA
ATOM     79  N   LEU A   6       3.752   1.738  29.595  0.00  0.00    -0.297 N 
ATOM     80  H   LEU A   6       3.146   2.538  29.321  0.00  0.00    +0.150 HD
BRANCH  77  81
ATOM     81  CA  PHE A   5       1.852   1.042  30.936  0.00  0.00    +0.153 C 
BRANCH  81  83
ATOM     82  C   GLU A   4       0.234  -0.474  29.915  0.00  0.00    +0.241 C 
ATOM     83  N   PHE A   5       0.993  -0.141  30.946  0.00  0.00    -0.297 N 
ATOM     84  H   PHE A   5       0.978  -0.742  31.794  0.00  0.00    +0.150 HD
ATOM     85  O   GLU A   4       0.208   0.185  28.877  0.00  0.00    -0.273 OA
BRANCH  82  86
ATOM     86  CA  GLU A   4      -0.647  -1.713  30.068  0.00  0.00    +0.149 C 
BRANCH  86  89
ATOM     87  C   PHE A   3      -2.618  -0.318  29.849  0.00  0.00    +0.241 C 
ATOM     88  O   PHE A   3      -2.380   0.277  30.904  0.00  0.00    -0.273 OA
ATOM     89  N   GLU A   4      -1.867  -1.316  29.380  0.00  0.00    -0.297 N 
ATOM     90  H   GLU A   4      -2.156  -1.815  28.515  0.00  0.00    +0.150 HD
BRANCH  87  91
ATOM     91  CA  PHE A   3      -3.817   0.074  29.013  0.00  0.00    +0.153 C 
BRANCH  91  93
ATOM     92  C   VAL A   2      -6.090   0.252  29.877  0.00  0.00    +0.241 C 
ATOM     93  N   PHE A   3      -4.848   0.711  29.823  0.00  0.00    -0.297 N 
ATOM     94  H   PHE A   3      -4.600   1.555  30.378  0.00  0.00    +0.150 HD
ATOM     95  O   VAL A   2      -6.461  -0.756  29.284  0.00  0.00    -0.273 OA
BRANCH  92  96
ATOM     96  CA  VAL A   2      -7.058   1.044  30.739  0.00  0.00    +0.148 C 
BRANCH  96  98
ATOM     97  C   LEU A   1      -8.351   2.641  29.416  0.00  0.00    +0.238 C 
ATOM     98  N   VAL A   2      -8.207   1.423  29.931  0.00  0.00    -0.297 N 
ATOM     99  H   VAL A   2      -8.945   0.713  29.749  0.00  0.00    +0.150 HD
ATOM    100  O   LEU A   1      -7.535   3.554  29.582  0.00  0.00    -0.274 OA
BRANCH  97 101
ATOM    101  CA  LEU A   1      -9.614   2.863  28.592  0.00  0.00    +0.145 C 
BRANCH 101 102
ATOM    102  N   LEU A   1     -10.349   3.994  29.131  0.00  0.00    -0.238 NA
ATOM    103  H   LEU A   1      -9.932   4.945  29.066  0.00  0.00    +0.142 HD
ENDBRANCH 101 102
BRANCH 101 104
ATOM    104  CB  LEU A   1      -9.234   3.109  27.137  0.00  0.00    +0.026 C 
BRANCH 104 105
ATOM    105  CG  LEU A   1     -10.376   3.398  26.157  0.00  0.00    +0.002 C 
ATOM    106  CD2 LEU A   1     -11.506   2.400  26.364  0.00  0.00    +0.000 C 
ATOM    107  CD1 LEU A   1      -9.852   3.304  24.733  0.00  0.00    +0.000 C 
ENDBRANCH 104 105
ENDBRANCH 101 104
ENDBRANCH  97 101
ENDBRANCH  96  98
BRANCH  96 108
ATOM    108  CB  VAL A   2      -7.486   0.170  31.943  0.00  0.00    +0.027 C 
ATOM    109  CG2 VAL A   2      -8.513   0.914  32.799  0.00  0.00    +0.002 C 
ATOM    110  CG1 VAL A   2      -6.276  -0.184  32.775  0.00  0.00    +0.002 C 
ENDBRANCH  96 108
ENDBRANCH  92  96
ENDBRANCH  91  93
BRANCH  91 111
ATOM    111  CB  PHE A   3      -3.315   1.048  27.949  0.00  0.00    +0.055 C 
BRANCH 111 112
ATOM    112  CG  PHE A   3      -4.328   1.409  26.907  0.00  0.00    -0.020 A 
ATOM    113  CD2 PHE A   3      -5.092   2.563  27.036  0.00  0.00    -0.004 A 
ATOM    114  CE2 PHE A   3      -5.979   2.937  26.036  0.00  0.00    -0.000 A 
ATOM    115  CZ  PHE A   3      -6.112   2.151  24.888  0.00  0.00    -0.000 A 
ATOM    116  CE1 PHE A   3      -5.356   0.990  24.750  0.00  0.00    -0.000 A 
ATOM    117  CD1 PHE A   3      -4.471   0.626  25.760  0.00  0.00    -0.004 A 
ENDBRANCH 111 112
ENDBRANCH  91 111
ENDBRANCH  87  91
ENDBRANCH  86  89
BRANCH  86 118
ATOM    118  CB  GLU A   4       0.012  -2.933  29.396  0.00  0.00    +0.041 C 
BRANCH 118 119
ATOM    119  CG  GLU A   4       0.533  -2.722  27.984  0.00  0.00    +0.116 C 
BRANCH 119 120
ATOM    120  CD  GLU A   4       1.456  -3.846  27.515  0.00  0.00    +0.365 C 
ATOM    121  OE2 GLU A   4       2.511  -4.066  28.124  0.00  0.00    -0.246 OA
ATOM    122  OE1 GLU A   4       1.144  -4.520  26.530  0.00  0.00    -0.246 OA
ENDBRANCH 119 120
ENDBRANCH 118 119
ENDBRANCH  86 118
ENDBRANCH  82  86
ENDBRANCH  81  83
BRANCH  81 123
ATOM    123  CB  PHE A   5       1.982   1.566  32.355  0.00  0.00    +0.055 C 
BRANCH 123 124
ATOM    124  CG  PHE A   5       2.778   2.842  32.477  0.00  0.00    -0.020 A 
ATOM    125  CD2 PHE A   5       4.032   2.839  33.075  0.00  0.00    -0.004 A 
ATOM    126  CE2 PHE A   5       4.716   4.033  33.288  0.00  0.00    -0.000 A 
ATOM    127  CZ  PHE A   5       4.150   5.254  32.893  0.00  0.00    -0.000 A 
ATOM    128  CE1 PHE A   5       2.916   5.270  32.288  0.00  0.00    -0.000 A 
ATOM    129  CD1 PHE A   5       2.228   4.068  32.079  0.00  0.00    -0.004 A 
ENDBRANCH 123 124
ENDBRANCH  81 123
ENDBRANCH  77  81
ENDBRANCH  76  79
BRANCH  76 130
ATOM    130  CB  LEU A   6       5.143   1.507  27.584  0.00  0.00    +0.029 C 
BRANCH 130 131
ATOM    131  CG  LEU A   6       5.023   0.009  27.322  0.00  0.00    +0.002 C 
ATOM    132  CD2 LEU A   6       3.565  -0.383  27.363  0.00  0.00    +0.000 C 
ATOM    133  CD1 LEU A   6       5.647  -0.347  25.993  0.00  0.00    +0.000 C 
ENDBRANCH 130 131
ENDBRANCH  76 130
ENDBRANCH  72  76
ENDBRANCH  71  74
BRANCH  71 134
ATOM    134  CB  HIS A   7       9.008   3.769  30.966  0.00  0.00    +0.076 C 
BRANCH 134 135
ATOM    135  CG  HIS A   7       8.908   4.116  32.421  0.00  0.00    +0.082 A 
ATOM    136  ND1 HIS A   7       8.648   3.175  33.397  0.00  0.00    -0.227 NA
ATOM    137  CE1 HIS A   7       8.601   3.768  34.576  0.00  0.00    +0.199 A 
ATOM    138  NE2 HIS A   7       8.817   5.061  34.402  0.00  0.00    -0.221 NA
ATOM    139  CD2 HIS A   7       9.009   5.305  33.063  0.00  0.00    +0.115 A 
ENDBRANCH 134 135
ENDBRANCH  71 134
ENDBRANCH   1  71
TORSDOF 59
REMARK  Name = ../refined-set-2016/1pxn/1pxn_pocket.pdb
REMARK  218 active torsions:
REMARK  status: ('A' for Active; 'I' for Inactive)
REMARK    1  A    between atoms: _1  and  _3
REMARK    2  A    between atoms: _3  and  _4
REMARK    3  A    between atoms: _3  and  _6
REMARK    4  A    between atoms: _6  and  _7
REMARK    5  A    between atoms: _7  and  _8
REMARK    6  A    between atoms: _11  and  _13
REMARK    7  A    between atoms: _13  and  _14
REMARK    8  A    between atoms: _13  and  _16
REMARK    9  A    between atoms: _16  and  _17
REMARK   10  A    between atoms: _17  and  _18
REMARK   11  A    between atoms: _18  and  _19
REMARK   12  A    between atoms: _19  and  _20
REMARK   13  A    between atoms: _24  and  _26
REMARK   14  A    between atoms: _26  and  _27
REMARK   15  A    between atoms: _26  and  _29
REMARK   16  A    between atoms: _29  and  _30
REMARK   17  A    between atoms: _33  and  _35
REMARK   18  A    between atoms: _35  and  _36
REMARK   19  A    between atoms: _38  and  _40
REMARK   20  A    between atoms: _40  and  _41
REMARK   21  A    between atoms: _40  and  _43
REMARK   22  A    between atoms: _43  and  _44
REMARK   23  A    between atoms: _44  and  _45
REMARK   24  A    between atoms: _48  and  _50
REMARK   25  A    between atoms: _50  and  _51
REMARK   26  A    between atoms: _53  and  _55
REMARK   27  A    between atoms: _55  and  _56
REMARK   28  A    between atoms: _55  and  _58
REMARK   29  A    between atoms: _58  and  _59
REMARK   30  A    between atoms: _62  and  _64
REMARK   31  A    between atoms: _64  and  _65
REMARK   32  A    between atoms: _64  and  _67
REMARK   33  A    between atoms: _67  and  _68
REMARK   34  A    between atoms: _73  and  _74
REMARK   35  A    between atoms: _76  and  _78
REMARK   36  A    between atoms: _78  and  _79
REMARK   37  A    between atoms: _81  and  _83
REMARK   38  A    between atoms: _83  and  _84
REMARK   39  A    between atoms: _83  and  _86
REMARK   40  A    between atoms: _89  and  _91
REMARK   41  A    between atoms: _91  and  _92
REMARK   42  A    between atoms: _91  and  _94
REMARK   43  A    between atoms: _97  and  _99
REMARK   44  A    between atoms: _99  and  _100
REMARK   45  A    between atoms: _99  and  _102
REMARK   46  A    between atoms: _102  and  _103
REMARK   47  A    between atoms: _108  and  _109
REMARK   48  A    between atoms: _111  and  _113
REMARK   49  A    between atoms: _113  and  _114
REMARK   50  A    between atoms: _113  and  _116
REMARK   51  A    between atoms: _116  and  _117
REMARK   52  A    between atoms: _117  and  _118
REMARK   53  A    between atoms: _118  and  _119
REMARK   54  A    between atoms: _119  and  _120
REMARK   55  A    between atoms: _124  and  _126
REMARK   56  A    between atoms: _126  and  _127
REMARK   57  A    between atoms: _130  and  _132
REMARK   58  A    between atoms: _132  and  _133
REMARK   59  A    between atoms: _132  and  _135
REMARK   60  A    between atoms: _138  and  _140
REMARK   61  A    between atoms: _140  and  _141
REMARK   62  A    between atoms: _140  and  _143
REMARK   63  A    between atoms: _146  and  _148
REMARK   64  A    between atoms: _148  and  _149
REMARK   65  A    between atoms: _152  and  _154
REMARK   66  A    between atoms: _154  and  _155
REMARK   67  A    between atoms: _154  and  _157
REMARK   68  A    between atoms: _157  and  _158
REMARK   69  A    between atoms: _161  and  _163
REMARK   70  A    between atoms: _163  and  _164
REMARK   71  A    between atoms: _163  and  _166
REMARK   72  A    between atoms: _166  and  _167
REMARK   73  A    between atoms: _167  and  _168
REMARK   74  A    between atoms: _168  and  _169
REMARK   75  A    between atoms: _169  and  _170
REMARK   76  A    between atoms: _174  and  _176
REMARK   77  A    between atoms: _176  and  _177
REMARK   78  A    between atoms: _176  and  _179
REMARK   79  A    between atoms: _182  and  _184
REMARK   80  A    between atoms: _184  and  _185
REMARK   81  A    between atoms: _184  and  _187
REMARK   82  A    between atoms: _187  and  _188
REMARK   83  A    between atoms: _188  and  _189
REMARK   84  A    between atoms: _189  and  _190
REMARK   85  A    between atoms: _190  and  _191
REMARK   86  A    between atoms: _195  and  _197
REMARK   87  A    between atoms: _197  and  _198
REMARK   88  A    between atoms: _197  and  _200
REMARK   89  A    between atoms: _200  and  _201
REMARK   90  A    between atoms: _204  and  _206
REMARK   91  A    between atoms: _206  and  _207
REMARK   92  A    between atoms: _206  and  _209
REMARK   93  A    between atoms: _209  and  _210
REMARK   94  A    between atoms: _213  and  _215
REMARK   95  A    between atoms: _215  and  _216
REMARK   96  A    between atoms: _215  and  _218
REMARK   97  A    between atoms: _218  and  _219
REMARK   98  A    between atoms: _222  and  _224
REMARK   99  A    between atoms: _224  and  _225
REMARK  100  A    between atoms: _224  and  _227
REMARK  101  A    between atoms: _230  and  _232
REMARK  102  A    between atoms: _232  and  _233
REMARK  103  A    between atoms: _232  and  _235
REMARK  104  A    between atoms: _235  and  _236
REMARK  105  A    between atoms: _242  and  _244
REMARK  106  A    between atoms: _244  and  _245
REMARK  107  A    between atoms: _244  and  _247
REMARK  108  A    between atoms: _247  and  _248
REMARK  109  A    between atoms: _248  and  _249
REMARK  110  A    between atoms: _252  and  _254
REMARK  111  A    between atoms: _254  and  _255
REMARK  112  A    between atoms: _254  and  _257
REMARK  113  A    between atoms: _257  and  _258
REMARK  114  A    between atoms: _264  and  _266
REMARK  115  A    between atoms: _266  and  _267
REMARK  116  A    between atoms: _266  and  _269
REMARK  117  A    between atoms: _269  and  _270
REMARK  118  A    between atoms: _273  and  _275
REMARK  119  A    between atoms: _275  and  _276
REMARK  120  A    between atoms: _275  and  _278
REMARK  121  A    between atoms: _278  and  _279
REMARK  122  A    between atoms: _284  and  _286
REMARK  123  A    between atoms: _286  and  _287
REMARK  124  A    between atoms: _286  and  _289
REMARK  125  A    between atoms: _289  and  _290
REMARK  126  A    between atoms: _290  and  _291
REMARK  127  A    between atoms: _296  and  _298
REMARK  128  A    between atoms: _298  and  _299
REMARK  129  A    between atoms: _298  and  _301
REMARK  130  A    between atoms: _301  and  _302
REMARK  131  A    between atoms: _305  and  _307
REMARK  132  A    between atoms: _307  and  _308
REMARK  133  A    between atoms: _307  and  _310
REMARK  134  A    between atoms: _310  and  _311
REMARK  135  A    between atoms: _314  and  _316
REMARK  136  A    between atoms: _316  and  _317
REMARK  137  A    between atoms: _316  and  _319
REMARK  138  A    between atoms: _319  and  _320
REMARK  139  A    between atoms: _320  and  _321
REMARK  140  A    between atoms: _321  and  _322
REMARK  141  A    between atoms: _322  and  _323
REMARK  142  A    between atoms: _327  and  _329
REMARK  143  A    between atoms: _329  and  _330
REMARK  144  A    between atoms: _329  and  _332
REMARK  145  A    between atoms: _332  and  _333
REMARK  146  A    between atoms: _333  and  _334
REMARK  147  A    between atoms: _334  and  _335
REMARK  148  A    between atoms: _335  and  _336
REMARK  149  A    between atoms: _340  and  _342
REMARK  150  A    between atoms: _342  and  _343
REMARK  151  A    between atoms: _342  and  _345
REMARK  152  A    between atoms: _345  and  _346
REMARK  153  A    between atoms: _352  and  _354
REMARK  154  A    between atoms: _354  and  _355
REMARK  155  A    between atoms: _354  and  _357
REMARK  156  A    between atoms: _357  and  _358
REMARK  157  A    between atoms: _363  and  _365
REMARK  158  A    between atoms: _365  and  _366
REMARK  159  A    between atoms: _365  and  _368
REMARK  160  A    between atoms: _368  and  _369
REMARK  161  A    between atoms: _369  and  _370
REMARK  162  A    between atoms: _370  and  _371
REMARK  163  A    between atoms: _371  and  _372
REMARK  164  A    between atoms: _377  and  _378
REMARK  165  A    between atoms: _383  and  _385
REMARK  166  A    between atoms: _385  and  _386
REMARK  167  A    between atoms: _385  and  _388
REMARK  168  A    between atoms: _388  and  _389
REMARK  169  A    between atoms: _389  and  _390
REMARK  170  A    between atoms: _395  and  _397
REMARK  171  A    between atoms: _397  and  _398
REMARK  172  A    between atoms: _397  and  _400
REMARK  173  A    between atoms: _400  and  _401
REMARK  174  A    between atoms: _406  and  _408
REMARK  175  A    between atoms: _408  and  _409
REMARK  176  A    between atoms: _408  and  _411
REMARK  177  A    between atoms: _411  and  _412
REMARK  178  A    between atoms: _415  and  _417
REMARK  179  A    between atoms: _417  and  _418
REMARK  180  A    between atoms: _417  and  _420
REMARK  181  A    between atoms: _420  and  _421
REMARK  182  A    between atoms: _424  and  _426
REMARK  183  A    between atoms: _426  and  _427
REMARK  184  A    between atoms: _426  and  _429
REMARK  185  A    between atoms: _429  and  _430
REMARK  186  A    between atoms: _433  and  _435
REMARK  187  A    between atoms: _435  and  _436
REMARK  188  A    between atoms: _435  and  _438
REMARK  189  A    between atoms: _438  and  _439
REMARK  190  A    between atoms: _439  and  _440
REMARK  191  A    between atoms: _440  and  _441
REMARK  192  A    between atoms: _441  and  _442
REMARK  193  A    between atoms: _446  and  _448
REMARK  194  A    between atoms: _448  and  _449
REMARK  195  A    between atoms: _448  and  _451
REMARK  196  A    between atoms: _451  and  _452
REMARK  197  A    between atoms: _455  and  _457
REMARK  198  A    between atoms: _457  and  _458
REMARK  199  A    between atoms: _461  and  _463
REMARK  200  A    between atoms: _463  and  _464
REMARK  201  A    between atoms: _463  and  _466
REMARK  202  A    between atoms: _466  and  _467
REMARK  203  A    between atoms: _470  and  _472
REMARK  204  A    between atoms: _472  and  _473
REMARK  205  A    between atoms: _472  and  _475
REMARK  206  A    between atoms: _475  and  _476
REMARK  207  A    between atoms: _482  and  _484
REMARK  208  A    between atoms: _484  and  _485
REMARK  209  A    between atoms: _484  and  _487
REMARK  210  A    between atoms: _487  and  _488
REMARK  211  A    between atoms: _491  and  _493
REMARK  212  A    between atoms: _493  and  _494
REMARK  213  A    between atoms: _493  and  _496
REMARK  214  A    between atoms: _496  and  _497
REMARK  215  A    between atoms: _500  and  _502
REMARK  216  A    between atoms: _502  and  _503
REMARK  217  A    between atoms: _502  and  _505
REMARK  218  A    between atoms: _505  and  _506
REMARK                            x       y       z     vdW  Elec       q    Type
REMARK                         _______ _______ _______ _____ _____    ______ ____
ROOT
ATOM      1  CB  HIS A   1      -3.004   1.756  13.729  0.00  0.00    +0.072 C 
ENDROOT
BRANCH   1   2
ATOM      2  CG  HIS A   1      -2.797   2.712  14.848  0.00  0.00    +0.082 A 
ATOM      3  ND1 HIS A   1      -2.584   2.299  16.144  0.00  0.00    -0.227 NA
ATOM      4  CE1 HIS A   1      -2.506   3.357  16.927  0.00  0.00    +0.199 A 
ATOM      5  NE2 HIS A   1      -2.661   4.440  16.186  0.00  0.00    -0.221 NA
ATOM      6  CD2 HIS A   1      -2.842   4.064  14.881  0.00  0.00    +0.115 A 
ENDBRANCH   1   2
BRANCH   1   7
ATOM      7  CA  HIS A   1      -4.465   1.492  13.444  0.00  0.00    +0.139 C 
BRANCH   7   8
ATOM      8  N   HIS A   1      -4.602   0.463  12.436  0.00  0.00    -0.239 NA
ATOM      9  H   HIS A   1      -3.824   0.281  11.771  0.00  0.00    +0.142 HD
ENDBRANCH   7   8
BRANCH   7  10
ATOM     10  C   HIS A   1      -5.145   2.790  13.058  0.00  0.00    +0.224 C 
ATOM     11  O   HIS A   1      -5.939   3.313  13.829  0.00  0.00    -0.287 OA
ENDBRANCH   7  10
ENDBRANCH   1   7
TORSDOF 4
REMARK  Name = ../refined-set-2016/1pxn/1pxn_pocket.pdb
REMARK  218 active torsions:
REMARK  status: ('A' for Active; 'I' for Inactive)
REMARK    1  A    between atoms: _1  and  _3
REMARK    2  A    between atoms: _3  and  _4
REMARK    3  A    between atoms: _3  and  _6
REMARK    4  A    between atoms: _6  and  _7
REMARK    5  A    between atoms: _7  and  _8
REMARK    6  A    between atoms: _11  and  _13
REMARK    7  A    between atoms: _13  and  _14
REMARK    8  A    between atoms: _13  and  _16
REMARK    9  A    between atoms: _16  and  _17
REMARK   10  A    between atoms: _17  and  _18
REMARK   11  A    between atoms: _18  and  _19
REMARK   12  A    between atoms: _19  and  _20
REMARK   13  A    between atoms: _24  and  _26
REMARK   14  A    between atoms: _26  and  _27
REMARK   15  A    between atoms: _26  and  _29
REMARK   16  A    between atoms: _29  and  _30
REMARK   17  A    between atoms: _33  and  _35
REMARK   18  A    between atoms: _35  and  _36
REMARK   19  A    between atoms: _38  and  _40
REMARK   20  A    between atoms: _40  and  _41
REMARK   21  A    between atoms: _40  and  _43
REMARK   22  A    between atoms: _43  and  _44
REMARK   23  A    between atoms: _44  and  _45
REMARK   24  A    between atoms: _48  and  _50
REMARK   25  A    between atoms: _50  and  _51
REMARK   26  A    between atoms: _53  and  _55
REMARK   27  A    between atoms: _55  and  _56
REMARK   28  A    between atoms: _55  and  _58
REMARK   29  A    between atoms: _58  and  _59
REMARK   30  A    between atoms: _62  and  _64
REMARK   31  A    between atoms: _64  and  _65
REMARK   32  A    between atoms: _64  and  _67
REMARK   33  A    between atoms: _67  and  _68
REMARK   34  A    between atoms: _73  and  _74
REMARK   35  A    between atoms: _76  and  _78
REMARK   36  A    between atoms: _78  and  _79
REMARK   37  A    between atoms: _81  and  _83
REMARK   38  A    between atoms: _83  and  _84
REMARK   39  A    between atoms: _83  and  _86
REMARK   40  A    between atoms: _89  and  _91
REMARK   41  A    between atoms: _91  and  _92
REMARK   42  A    between atoms: _91  and  _94
REMARK   43  A    between atoms: _97  and  _99
REMARK   44  A    between atoms: _99  and  _100
REMARK   45  A    between atoms: _99  and  _102
REMARK   46  A    between atoms: _102  and  _103
REMARK   47  A    between atoms: _108  and  _109
REMARK   48  A    between atoms: _111  and  _113
REMARK   49  A    between atoms: _113  and  _114
REMARK   50  A    between atoms: _113  and  _116
REMARK   51  A    between atoms: _116  and  _117
REMARK   52  A    between atoms: _117  and  _118
REMARK   53  A    between atoms: _118  and  _119
REMARK   54  A    between atoms: _119  and  _120
REMARK   55  A    between atoms: _124  and  _126
REMARK   56  A    between atoms: _126  and  _127
REMARK   57  A    between atoms: _130  and  _132
REMARK   58  A    between atoms: _132  and  _133
REMARK   59  A    between atoms: _132  and  _135
REMARK   60  A    between atoms: _138  and  _140
REMARK   61  A    between atoms: _140  and  _141
REMARK   62  A    between atoms: _140  and  _143
REMARK   63  A    between atoms: _146  and  _148
REMARK   64  A    between atoms: _148  and  _149
REMARK   65  A    between atoms: _152  and  _154
REMARK   66  A    between atoms: _154  and  _155
REMARK   67  A    between atoms: _154  and  _157
REMARK   68  A    between atoms: _157  and  _158
REMARK   69  A    between atoms: _161  and  _163
REMARK   70  A    between atoms: _163  and  _164
REMARK   71  A    between atoms: _163  and  _166
REMARK   72  A    between atoms: _166  and  _167
REMARK   73  A    between atoms: _167  and  _168
REMARK   74  A    between atoms: _168  and  _169
REMARK   75  A    between atoms: _169  and  _170
REMARK   76  A    between atoms: _174  and  _176
REMARK   77  A    between atoms: _176  and  _177
REMARK   78  A    between atoms: _176  and  _179
REMARK   79  A    between atoms: _182  and  _184
REMARK   80  A    between atoms: _184  and  _185
REMARK   81  A    between atoms: _184  and  _187
REMARK   82  A    between atoms: _187  and  _188
REMARK   83  A    between atoms: _188  and  _189
REMARK   84  A    between atoms: _189  and  _190
REMARK   85  A    between atoms: _190  and  _191
REMARK   86  A    between atoms: _195  and  _197
REMARK   87  A    between atoms: _197  and  _198
REMARK   88  A    between atoms: _197  and  _200
REMARK   89  A    between atoms: _200  and  _201
REMARK   90  A    between atoms: _204  and  _206
REMARK   91  A    between atoms: _206  and  _207
REMARK   92  A    between atoms: _206  and  _209
REMARK   93  A    between atoms: _209  and  _210
REMARK   94  A    between atoms: _213  and  _215
REMARK   95  A    between atoms: _215  and  _216
REMARK   96  A    between atoms: _215  and  _218
REMARK   97  A    between atoms: _218  and  _219
REMARK   98  A    between atoms: _222  and  _224
REMARK   99  A    between atoms: _224  and  _225
REMARK  100  A    between atoms: _224  and  _227
REMARK  101  A    between atoms: _230  and  _232
REMARK  102  A    between atoms: _232  and  _233
REMARK  103  A    between atoms: _232  and  _235
REMARK  104  A    between atoms: _235  and  _236
REMARK  105  A    between atoms: _242  and  _244
REMARK  106  A    between atoms: _244  and  _245
REMARK  107  A    between atoms: _244  and  _247
REMARK  108  A    between atoms: _247  and  _248
REMARK  109  A    between atoms: _248  and  _249
REMARK  110  A    between atoms: _252  and  _254
REMARK  111  A    between atoms: _254  and  _255
REMARK  112  A    between atoms: _254  and  _257
REMARK  113  A    between atoms: _257  and  _258
REMARK  114  A    between atoms: _264  and  _266
REMARK  115  A    between atoms: _266  and  _267
REMARK  116  A    between atoms: _266  and  _269
REMARK  117  A    between atoms: _269  and  _270
REMARK  118  A    between atoms: _273  and  _275
REMARK  119  A    between atoms: _275  and  _276
REMARK  120  A    between atoms: _275  and  _278
REMARK  121  A    between atoms: _278  and  _279
REMARK  122  A    between atoms: _284  and  _286
REMARK  123  A    between atoms: _286  and  _287
REMARK  124  A    between atoms: _286  and  _289
REMARK  125  A    between atoms: _289  and  _290
REMARK  126  A    between atoms: _290  and  _291
REMARK  127  A    between atoms: _296  and  _298
REMARK  128  A    between atoms: _298  and  _299
REMARK  129  A    between atoms: _298  and  _301
REMARK  130  A    between atoms: _301  and  _302
REMARK  131  A    between atoms: _305  and  _307
REMARK  132  A    between atoms: _307  and  _308
REMARK  133  A    between atoms: _307  and  _310
REMARK  134  A    between atoms: _310  and  _311
REMARK  135  A    between atoms: _314  and  _316
REMARK  136  A    between atoms: _316  and  _317
REMARK  137  A    between atoms: _316  and  _319
REMARK  138  A    between atoms: _319  and  _320
REMARK  139  A    between atoms: _320  and  _321
REMARK  140  A    between atoms: _321  and  _322
REMARK  141  A    between atoms: _322  and  _323
REMARK  142  A    between atoms: _327  and  _329
REMARK  143  A    between atoms: _329  and  _330
REMARK  144  A    between atoms: _329  and  _332
REMARK  145  A    between atoms: _332  and  _333
REMARK  146  A    between atoms: _333  and  _334
REMARK  147  A    between atoms: _334  and  _335
REMARK  148  A    between atoms: _335  and  _336
REMARK  149  A    between atoms: _340  and  _342
REMARK  150  A    between atoms: _342  and  _343
REMARK  151  A    between atoms: _342  and  _345
REMARK  152  A    between atoms: _345  and  _346
REMARK  153  A    between atoms: _352  and  _354
REMARK  154  A    between atoms: _354  and  _355
REMARK  155  A    between atoms: _354  and  _357
REMARK  156  A    between atoms: _357  and  _358
REMARK  157  A    between atoms: _363  and  _365
REMARK  158  A    between atoms: _365  and  _366
REMARK  159  A    between atoms: _365  and  _368
REMARK  160  A    between atoms: _368  and  _369
REMARK  161  A    between atoms: _369  and  _370
REMARK  162  A    between atoms: _370  and  _371
REMARK  163  A    between atoms: _371  and  _372
REMARK  164  A    between atoms: _377  and  _378
REMARK  165  A    between atoms: _383  and  _385
REMARK  166  A    between atoms: _385  and  _386
REMARK  167  A    between atoms: _385  and  _388
REMARK  168  A    between atoms: _388  and  _389
REMARK  169  A    between atoms: _389  and  _390
REMARK  170  A    between atoms: _395  and  _397
REMARK  171  A    between atoms: _397  and  _398
REMARK  172  A    between atoms: _397  and  _400
REMARK  173  A    between atoms: _400  and  _401
REMARK  174  A    between atoms: _406  and  _408
REMARK  175  A    between atoms: _408  and  _409
REMARK  176  A    between atoms: _408  and  _411
REMARK  177  A    between atoms: _411  and  _412
REMARK  178  A    between atoms: _415  and  _417
REMARK  179  A    between atoms: _417  and  _418
REMARK  180  A    between atoms: _417  and  _420
REMARK  181  A    between atoms: _420  and  _421
REMARK  182  A    between atoms: _424  and  _426
REMARK  183  A    between atoms: _426  and  _427
REMARK  184  A    between atoms: _426  and  _429
REMARK  185  A    between atoms: _429  and  _430
REMARK  186  A    between atoms: _433  and  _435
REMARK  187  A    between atoms: _435  and  _436
REMARK  188  A    between atoms: _435  and  _438
REMARK  189  A    between atoms: _438  and  _439
REMARK  190  A    between atoms: _439  and  _440
REMARK  191  A    between atoms: _440  and  _441
REMARK  192  A    between atoms: _441  and  _442
REMARK  193  A    between atoms: _446  and  _448
REMARK  194  A    between atoms: _448  and  _449
REMARK  195  A    between atoms: _448  and  _451
REMARK  196  A    between atoms: _451  and  _452
REMARK  197  A    between atoms: _455  and  _457
REMARK  198  A    between atoms: _457  and  _458
REMARK  199  A    between atoms: _461  and  _463
REMARK  200  A    between atoms: _463  and  _464
REMARK  201  A    between atoms: _463  and  _466
REMARK  202  A    between atoms: _466  and  _467
REMARK  203  A    between atoms: _470  and  _472
REMARK  204  A    between atoms: _472  and  _473
REMARK  205  A    between atoms: _472  and  _475
REMARK  206  A    between atoms: _475  and  _476
REMARK  207  A    between atoms: _482  and  _484
REMARK  208  A    between atoms: _484  and  _485
REMARK  209  A    between atoms: _484  and  _487
REMARK  210  A    between atoms: _487  and  _488
REMARK  211  A    between atoms: _491  and  _493
REMARK  212  A    between atoms: _493  and  _494
REMARK  213  A    between atoms: _493  and  _496
REMARK  214  A    between atoms: _496  and  _497
REMARK  215  A    between atoms: _500  and  _502
REMARK  216  A    between atoms: _502  and  _503
REMARK  217  A    between atoms: _502  and  _505
REMARK  218  A    between atoms: _505  and  _506
REMARK                            x       y       z     vdW  Elec       q    Type
REMARK                         _______ _______ _______ _____ _____    ______ ____
ROOT
ATOM      1  CA  ASN A   4       1.559   6.397  20.374  0.00  0.00    +0.158 C 
ENDROOT
BRANCH   1   4
ATOM      2  C   GLN A   3       2.464   8.586  20.765  0.00  0.00    +0.241 C 
ATOM      3  O   GLN A   3       2.080   8.515  21.928  0.00  0.00    -0.273 OA
ATOM      4  N   ASN A   4       2.229   7.603  19.903  0.00  0.00    -0.297 N 
ATOM      5  H   ASN A   4       2.518   7.692  18.908  0.00  0.00    +0.150 HD
BRANCH   2   6
ATOM      6  CA  GLN A   3       3.204   9.840  20.271  0.00  0.00    +0.149 C 
BRANCH   6   9
ATOM      7  C   PRO A   2       4.994   8.923  18.877  0.00  0.00    +0.241 C 
ATOM      8  O   PRO A   2       5.449   8.225  19.767  0.00  0.00    -0.273 OA
ATOM      9  N   GLN A   3       3.934   9.703  19.020  0.00  0.00    -0.297 N 
ATOM     10  H   GLN A   3       3.606  10.246  18.196  0.00  0.00    +0.150 HD
BRANCH   7  14
ATOM     11  C   LYS A   1       3.524   8.420  16.302  0.00  0.00    +0.241 C 
ATOM     12  O   LYS A   1       3.269   7.484  17.047  0.00  0.00    -0.273 OA
ATOM     13  N   PRO A   2       4.637   9.157  16.440  0.00  0.00    -0.272 N 
ATOM     14  CA  PRO A   2       5.618   8.924  17.507  0.00  0.00    +0.152 C 
ATOM     15  CB  PRO A   2       6.595  10.073  17.332  0.00  0.00    +0.031 C 
ATOM     16  CG  PRO A   2       6.565  10.275  15.856  0.00  0.00    +0.024 C 
ATOM     17  CD  PRO A   2       5.105  10.217  15.536  0.00  0.00    +0.094 C 
BRANCH  11  18
ATOM     18  CA  LYS A   1       2.586   8.752  15.153  0.00  0.00    +0.145 C 
BRANCH  18  19
ATOM     19  N   LYS A   1       1.728   7.586  15.002  0.00  0.00    -0.238 NA
ATOM     20  H   LYS A   1       1.746   6.859  15.745  0.00  0.00    +0.142 HD
ENDBRANCH  18  19
BRANCH  18  21
ATOM     21  CB  LYS A   1       1.768   9.998  15.468  0.00  0.00    +0.026 C 
BRANCH  21  22
ATOM     22  CG  LYS A   1       0.948   9.902  16.735  0.00  0.00    -0.000 C 
BRANCH  22  23
ATOM     23  CD  LYS A   1       0.302  11.253  17.063  0.00  0.00    -0.024 C 
BRANCH  23  24
ATOM     24  CE  LYS A   1      -0.839  11.587  16.121  0.00  0.00    -0.086 C 
BRANCH  24  25
ATOM     25  NZ  LYS A   1      -1.959  10.607  16.322  0.00  0.00    +0.380 N 
ATOM     26  HZ1 LYS A   1      -2.294  10.662  17.305  0.00  0.00    -0.089 HD
ATOM     27  HZ2 LYS A   1      -1.616   9.645  16.124  0.00  0.00    -0.089 HD
ATOM     28  HZ3 LYS A   1      -2.740  10.838  15.675  0.00  0.00    -0.089 HD
ENDBRANCH  24  25
ENDBRANCH  23  24
ENDBRANCH  22  23
ENDBRANCH  21  22
ENDBRANCH  18  21
ENDBRANCH  11  18
ENDBRANCH   7  14
ENDBRANCH   6   9
BRANCH   6  29
ATOM     29  CB  GLN A   3       2.230  11.027  20.164  0.00  0.00    +0.039 C 
BRANCH  29  30
ATOM     30  CG  GLN A   3       2.912  12.431  20.082  0.00  0.00    +0.087 C 
BRANCH  30  31
ATOM     31  CD  GLN A   3       3.482  12.808  18.687  0.00  0.00    +0.219 C 
ATOM     32  NE2 GLN A   3       4.168  13.953  18.623  0.00  0.00    -0.329 N 
ATOM     33 HE21 GLN A   3       4.303  14.527  19.480  0.00  0.00    +0.145 HD
ATOM     34 HE22 GLN A   3       4.567  14.270  17.717  0.00  0.00    +0.145 HD
ATOM     35  OE1 GLN A   3       3.298  12.097  17.700  0.00  0.00    -0.275 OA
ENDBRANCH  30  31
ENDBRANCH  29  30
ENDBRANCH   6  29
ENDBRANCH   2   6
ENDBRANCH   1   4
BRANCH   1  36
ATOM     36  C   ASN A   4       2.376   5.146  20.085  0.00  0.00    +0.241 C 
ATOM     37  N   LEU A   5       3.689   5.331  20.126  0.00  0.00    -0.297 N 
ATOM     38  H   LEU A   5       4.048   6.292  20.297  0.00  0.00    +0.150 HD
ATOM     39  O   ASN A   4       1.838   4.062  19.831  0.00  0.00    -0.273 OA
BRANCH  37  40
ATOM     40  CA  LEU A   5       4.643   4.265  19.945  0.00  0.00    +0.149 C 
BRANCH  40  41
ATOM     41  C   LEU A   5       5.378   4.309  21.288  0.00  0.00    +0.241 C 
ATOM     42  N   LEU A   6       5.225   3.252  22.073  0.00  0.00    -0.297 N 
ATOM     43  H   LEU A   6       4.671   2.442  21.729  0.00  0.00    +0.150 HD
ATOM     44  O   LEU A   5       6.041   5.294  21.621  0.00  0.00    -0.273 OA
BRANCH  42  45
ATOM     45  CA  LEU A   6       5.813   3.196  23.404  0.00  0.00    +0.149 C 
BRANCH  45  46
ATOM     46  C   LEU A   6       6.870   2.109  23.570  0.00  0.00    +0.241 C 
ATOM     47  N   ILE A   7       7.948   2.477  24.242  0.00  0.00    -0.298 N 
ATOM     48  H   ILE A   7       7.988   3.438  24.639  0.00  0.00    +0.150 HD
ATOM     49  O   LEU A   6       6.715   0.970  23.116  0.00  0.00    -0.273 OA
BRANCH  47  50
ATOM     50  CA  ILE A   7       9.077   1.589  24.446  0.00  0.00    +0.137 C 
BRANCH  50  51
ATOM     51  C   ILE A   7       9.341   1.287  25.917  0.00  0.00    +0.227 C 
ATOM     52  O   ILE A   7       8.975   2.065  26.795  0.00  0.00    -0.286 OA
ENDBRANCH  50  51
BRANCH  50  53
ATOM     53  CB  ILE A   7      10.330   2.231  23.865  0.00  0.00    +0.026 C 
ATOM     54  CG2 ILE A   7      10.241   2.263  22.342  0.00  0.00    +0.002 C 
BRANCH  53  55
ATOM     55  CG1 ILE A   7      10.465   3.654  24.429  0.00  0.00    +0.002 C 
ATOM     56  CD1 ILE A   7      11.707   4.367  23.994  0.00  0.00    +0.000 C 
ENDBRANCH  53  55
ENDBRANCH  50  53
ENDBRANCH  47  50
ENDBRANCH  45  46
BRANCH  45  57
ATOM     57  CB  LEU A   6       4.680   3.018  24.398  0.00  0.00    +0.029 C 
BRANCH  57  58
ATOM     58  CG  LEU A   6       3.599   4.072  24.096  0.00  0.00    +0.002 C 
ATOM     59  CD2 LEU A   6       3.848   5.329  24.912  0.00  0.00    +0.000 C 
ATOM     60  CD1 LEU A   6       2.247   3.508  24.332  0.00  0.00    +0.000 C 
ENDBRANCH  57  58
ENDBRANCH  45  57
ENDBRANCH  42  45
ENDBRANCH  40  41
BRANCH  40  61
ATOM     61  CB  LEU A   5       5.558   4.594  18.769  0.00  0.00    +0.029 C 
BRANCH  61  62
ATOM     62  CG  LEU A   5       5.207   3.939  17.425  0.00  0.00    +0.002 C 
ATOM     63  CD2 LEU A   5       3.727   3.878  17.204  0.00  0.00    +0.000 C 
ATOM     64  CD1 LEU A   5       5.878   4.706  16.304  0.00  0.00    +0.000 C 
ENDBRANCH  61  62
ENDBRANCH  40  61
ENDBRANCH  37  40
ENDBRANCH   1  36
BRANCH   1  65
ATOM     65  CB  ASN A   4       0.162   6.264  19.791  0.00  0.00    +0.114 C 
BRANCH  65  66
ATOM     66  CG  ASN A   4       0.099   6.689  18.377  0.00  0.00    +0.222 C 
ATOM     67  ND2 ASN A   4      -0.895   7.502  18.057  0.00  0.00    -0.329 N 
ATOM     68 HD21 ASN A   4      -1.570   7.811  18.786  0.00  0.00    +0.145 HD
ATOM     69 HD22 ASN A   4      -1.002   7.832  17.077  0.00  0.00    +0.145 HD
ATOM     70  OD1 ASN A   4       0.931   6.288  17.557  0.00  0.00    -0.275 OA
ENDBRANCH  65  66
ENDBRANCH   1  65
TORSDOF 29
REMARK  Name = ../refined-set-2016/1pxn/1pxn_pocket.pdb
REMARK  218 active torsions:
REMARK  status: ('A' for Active; 'I' for Inactive)
REMARK    1  A    between atoms: _1  and  _3
REMARK    2  A    between atoms: _3  and  _4
REMARK    3  A    between atoms: _3  and  _6
REMARK    4  A    between atoms: _6  and  _7
REMARK    5  A    between atoms: _7  and  _8
REMARK    6  A    between atoms: _11  and  _13
REMARK    7  A    between atoms: _13  and  _14
REMARK    8  A    between atoms: _13  and  _16
REMARK    9  A    between atoms: _16  and  _17
REMARK   10  A    between atoms: _17  and  _18
REMARK   11  A    between atoms: _18  and  _19
REMARK   12  A    between atoms: _19  and  _20
REMARK   13  A    between atoms: _24  and  _26
REMARK   14  A    between atoms: _26  and  _27
REMARK   15  A    between atoms: _26  and  _29
REMARK   16  A    between atoms: _29  and  _30
REMARK   17  A    between atoms: _33  and  _35
REMARK   18  A    between atoms: _35  and  _36
REMARK   19  A    between atoms: _38  and  _40
REMARK   20  A    between atoms: _40  and  _41
REMARK   21  A    between atoms: _40  and  _43
REMARK   22  A    between atoms: _43  and  _44
REMARK   23  A    between atoms: _44  and  _45
REMARK   24  A    between atoms: _48  and  _50
REMARK   25  A    between atoms: _50  and  _51
REMARK   26  A    between atoms: _53  and  _55
REMARK   27  A    between atoms: _55  and  _56
REMARK   28  A    between atoms: _55  and  _58
REMARK   29  A    between atoms: _58  and  _59
REMARK   30  A    between atoms: _62  and  _64
REMARK   31  A    between atoms: _64  and  _65
REMARK   32  A    between atoms: _64  and  _67
REMARK   33  A    between atoms: _67  and  _68
REMARK   34  A    between atoms: _73  and  _74
REMARK   35  A    between atoms: _76  and  _78
REMARK   36  A    between atoms: _78  and  _79
REMARK   37  A    between atoms: _81  and  _83
REMARK   38  A    between atoms: _83  and  _84
REMARK   39  A    between atoms: _83  and  _86
REMARK   40  A    between atoms: _89  and  _91
REMARK   41  A    between atoms: _91  and  _92
REMARK   42  A    between atoms: _91  and  _94
REMARK   43  A    between atoms: _97  and  _99
REMARK   44  A    between atoms: _99  and  _100
REMARK   45  A    between atoms: _99  and  _102
REMARK   46  A    between atoms: _102  and  _103
REMARK   47  A    between atoms: _108  and  _109
REMARK   48  A    between atoms: _111  and  _113
REMARK   49  A    between atoms: _113  and  _114
REMARK   50  A    between atoms: _113  and  _116
REMARK   51  A    between atoms: _116  and  _117
REMARK   52  A    between atoms: _117  and  _118
REMARK   53  A    between atoms: _118  and  _119
REMARK   54  A    between atoms: _119  and  _120
REMARK   55  A    between atoms: _124  and  _126
REMARK   56  A    between atoms: _126  and  _127
REMARK   57  A    between atoms: _130  and  _132
REMARK   58  A    between atoms: _132  and  _133
REMARK   59  A    between atoms: _132  and  _135
REMARK   60  A    between atoms: _138  and  _140
REMARK   61  A    between atoms: _140  and  _141
REMARK   62  A    between atoms: _140  and  _143
REMARK   63  A    between atoms: _146  and  _148
REMARK   64  A    between atoms: _148  and  _149
REMARK   65  A    between atoms: _152  and  _154
REMARK   66  A    between atoms: _154  and  _155
REMARK   67  A    between atoms: _154  and  _157
REMARK   68  A    between atoms: _157  and  _158
REMARK   69  A    between atoms: _161  and  _163
REMARK   70  A    between atoms: _163  and  _164
REMARK   71  A    between atoms: _163  and  _166
REMARK   72  A    between atoms: _166  and  _167
REMARK   73  A    between atoms: _167  and  _168
REMARK   74  A    between atoms: _168  and  _169
REMARK   75  A    between atoms: _169  and  _170
REMARK   76  A    between atoms: _174  and  _176
REMARK   77  A    between atoms: _176  and  _177
REMARK   78  A    between atoms: _176  and  _179
REMARK   79  A    between atoms: _182  and  _184
REMARK   80  A    between atoms: _184  and  _185
REMARK   81  A    between atoms: _184  and  _187
REMARK   82  A    between atoms: _187  and  _188
REMARK   83  A    between atoms: _188  and  _189
REMARK   84  A    between atoms: _189  and  _190
REMARK   85  A    between atoms: _190  and  _191
REMARK   86  A    between atoms: _195  and  _197
REMARK   87  A    between atoms: _197  and  _198
REMARK   88  A    between atoms: _197  and  _200
REMARK   89  A    between atoms: _200  and  _201
REMARK   90  A    between atoms: _204  and  _206
REMARK   91  A    between atoms: _206  and  _207
REMARK   92  A    between atoms: _206  and  _209
REMARK   93  A    between atoms: _209  and  _210
REMARK   94  A    between atoms: _213  and  _215
REMARK   95  A    between atoms: _215  and  _216
REMARK   96  A    between atoms: _215  and  _218
REMARK   97  A    between atoms: _218  and  _219
REMARK   98  A    between atoms: _222  and  _224
REMARK   99  A    between atoms: _224  and  _225
REMARK  100  A    between atoms: _224  and  _227
REMARK  101  A    between atoms: _230  and  _232
REMARK  102  A    between atoms: _232  and  _233
REMARK  103  A    between atoms: _232  and  _235
REMARK  104  A    between atoms: _235  and  _236
REMARK  105  A    between atoms: _242  and  _244
REMARK  106  A    between atoms: _244  and  _245
REMARK  107  A    between atoms: _244  and  _247
REMARK  108  A    between atoms: _247  and  _248
REMARK  109  A    between atoms: _248  and  _249
REMARK  110  A    between atoms: _252  and  _254
REMARK  111  A    between atoms: _254  and  _255
REMARK  112  A    between atoms: _254  and  _257
REMARK  113  A    between atoms: _257  and  _258
REMARK  114  A    between atoms: _264  and  _266
REMARK  115  A    between atoms: _266  and  _267
REMARK  116  A    between atoms: _266  and  _269
REMARK  117  A    between atoms: _269  and  _270
REMARK  118  A    between atoms: _273  and  _275
REMARK  119  A    between atoms: _275  and  _276
REMARK  120  A    between atoms: _275  and  _278
REMARK  121  A    between atoms: _278  and  _279
REMARK  122  A    between atoms: _284  and  _286
REMARK  123  A    between atoms: _286  and  _287
REMARK  124  A    between atoms: _286  and  _289
REMARK  125  A    between atoms: _289  and  _290
REMARK  126  A    between atoms: _290  and  _291
REMARK  127  A    between atoms: _296  and  _298
REMARK  128  A    between atoms: _298  and  _299
REMARK  129  A    between atoms: _298  and  _301
REMARK  130  A    between atoms: _301  and  _302
REMARK  131  A    between atoms: _305  and  _307
REMARK  132  A    between atoms: _307  and  _308
REMARK  133  A    between atoms: _307  and  _310
REMARK  134  A    between atoms: _310  and  _311
REMARK  135  A    between atoms: _314  and  _316
REMARK  136  A    between atoms: _316  and  _317
REMARK  137  A    between atoms: _316  and  _319
REMARK  138  A    between atoms: _319  and  _320
REMARK  139  A    between atoms: _320  and  _321
REMARK  140  A    between atoms: _321  and  _322
REMARK  141  A    between atoms: _322  and  _323
REMARK  142  A    between atoms: _327  and  _329
REMARK  143  A    between atoms: _329  and  _330
REMARK  144  A    between atoms: _329  and  _332
REMARK  145  A    between atoms: _332  and  _333
REMARK  146  A    between atoms: _333  and  _334
REMARK  147  A    between atoms: _334  and  _335
REMARK  148  A    between atoms: _335  and  _336
REMARK  149  A    between atoms: _340  and  _342
REMARK  150  A    between atoms: _342  and  _343
REMARK  151  A    between atoms: _342  and  _345
REMARK  152  A    between atoms: _345  and  _346
REMARK  153  A    between atoms: _352  and  _354
REMARK  154  A    between atoms: _354  and  _355
REMARK  155  A    between atoms: _354  and  _357
REMARK  156  A    between atoms: _357  and  _358
REMARK  157  A    between atoms: _363  and  _365
REMARK  158  A    between atoms: _365  and  _366
REMARK  159  A    between atoms: _365  and  _368
REMARK  160  A    between atoms: _368  and  _369
REMARK  161  A    between atoms: _369  and  _370
REMARK  162  A    between atoms: _370  and  _371
REMARK  163  A    between atoms: _371  and  _372
REMARK  164  A    between atoms: _377  and  _378
REMARK  165  A    between atoms: _383  and  _385
REMARK  166  A    between atoms: _385  and  _386
REMARK  167  A    between atoms: _385  and  _388
REMARK  168  A    between atoms: _388  and  _389
REMARK  169  A    between atoms: _389  and  _390
REMARK  170  A    between atoms: _395  and  _397
REMARK  171  A    between atoms: _397  and  _398
REMARK  172  A    between atoms: _397  and  _400
REMARK  173  A    between atoms: _400  and  _401
REMARK  174  A    between atoms: _406  and  _408
REMARK  175  A    between atoms: _408  and  _409
REMARK  176  A    between atoms: _408  and  _411
REMARK  177  A    between atoms: _411  and  _412
REMARK  178  A    between atoms: _415  and  _417
REMARK  179  A    between atoms: _417  and  _418
REMARK  180  A    between atoms: _417  and  _420
REMARK  181  A    between atoms: _420  and  _421
REMARK  182  A    between atoms: _424  and  _426
REMARK  183  A    between atoms: _426  and  _427
REMARK  184  A    between atoms: _426  and  _429
REMARK  185  A    between atoms: _429  and  _430
REMARK  186  A    between atoms: _433  and  _435
REMARK  187  A    between atoms: _435  and  _436
REMARK  188  A    between atoms: _435  and  _438
REMARK  189  A    between atoms: _438  and  _439
REMARK  190  A    between atoms: _439  and  _440
REMARK  191  A    between atoms: _440  and  _441
REMARK  192  A    between atoms: _441  and  _442
REMARK  193  A    between atoms: _446  and  _448
REMARK  194  A    between atoms: _448  and  _449
REMARK  195  A    between atoms: _448  and  _451
REMARK  196  A    between atoms: _451  and  _452
REMARK  197  A    between atoms: _455  and  _457
REMARK  198  A    between atoms: _457  and  _458
REMARK  199  A    between atoms: _461  and  _463
REMARK  200  A    between atoms: _463  and  _464
REMARK  201  A    between atoms: _463  and  _466
REMARK  202  A    between atoms: _466  and  _467
REMARK  203  A    between atoms: _470  and  _472
REMARK  204  A    between atoms: _472  and  _473
REMARK  205  A    between atoms: _472  and  _475
REMARK  206  A    between atoms: _475  and  _476
REMARK  207  A    between atoms: _482  and  _484
REMARK  208  A    between atoms: _484  and  _485
REMARK  209  A    between atoms: _484  and  _487
REMARK  210  A    between atoms: _487  and  _488
REMARK  211  A    between atoms: _491  and  _493
REMARK  212  A    between atoms: _493  and  _494
REMARK  213  A    between atoms: _493  and  _496
REMARK  214  A    between atoms: _496  and  _497
REMARK  215  A    between atoms: _500  and  _502
REMARK  216  A    between atoms: _502  and  _503
REMARK  217  A    between atoms: _502  and  _505
REMARK  218  A    between atoms: _505  and  _506
REMARK                            x       y       z     vdW  Elec       q    Type
REMARK                         _______ _______ _______ _____ _____    ______ ____
ROOT
ATOM      1  CA  ALA A   3      -1.015   2.026  21.314  0.00  0.00    +0.149 C 
ATOM      2  CB  ALA A   3      -0.418   2.910  22.391  0.00  0.00    +0.031 C 
ENDROOT
BRANCH   1   3
ATOM      3  C   ALA A   3      -2.149   2.767  20.580  0.00  0.00    +0.241 C 
ATOM      4  N   ASP A   4      -3.396   2.526  21.002  0.00  0.00    -0.297 N 
ATOM      5  H   ASP A   4      -3.517   1.894  21.819  0.00  0.00    +0.150 HD
ATOM      6  O   ALA A   3      -1.882   3.552  19.670  0.00  0.00    -0.273 OA
BRANCH   4   7
ATOM      7  CA  ASP A   4      -4.608   3.094  20.389  0.00  0.00    +0.160 C 
BRANCH   7   8
ATOM      8  C   ASP A   4      -4.864   2.414  19.072  0.00  0.00    +0.241 C 
ATOM      9  N   PHE A   5      -4.354   1.197  18.956  0.00  0.00    -0.298 N 
ATOM     10  H   PHE A   5      -3.838   0.783  19.758  0.00  0.00    +0.150 HD
ATOM     11  O   ASP A   4      -5.504   2.967  18.189  0.00  0.00    -0.273 OA
BRANCH   9  12
ATOM     12  CA  PHE A   5      -4.500   0.431  17.736  0.00  0.00    +0.141 C 
BRANCH  12  13
ATOM     13  C   PHE A   5      -5.932   0.052  17.457  0.00  0.00    +0.227 C 
ATOM     14  O   PHE A   5      -6.521  -0.753  18.174  0.00  0.00    -0.286 OA
ENDBRANCH  12  13
BRANCH  12  15
ATOM     15  CB  PHE A   5      -3.647  -0.835  17.783  0.00  0.00    +0.054 C 
BRANCH  15  16
ATOM     16  CG  PHE A   5      -3.271  -1.325  16.428  0.00  0.00    -0.020 A 
ATOM     17  CD2 PHE A   5      -1.979  -1.137  15.940  0.00  0.00    -0.004 A 
ATOM     18  CE2 PHE A   5      -1.649  -1.465  14.618  0.00  0.00    -0.000 A 
ATOM     19  CZ  PHE A   5      -2.621  -1.992  13.772  0.00  0.00    -0.000 A 
ATOM     20  CE1 PHE A   5      -3.916  -2.192  14.254  0.00  0.00    -0.000 A 
ATOM     21  CD1 PHE A   5      -4.232  -1.859  15.582  0.00  0.00    -0.004 A 
ENDBRANCH  15  16
ENDBRANCH  12  15
ENDBRANCH   9  12
ENDBRANCH   7   8
BRANCH   7  22
ATOM     22  CB  ASP A   4      -4.490   4.594  20.150  0.00  0.00    +0.143 C 
BRANCH  22  23
ATOM     23  CG  ASP A   4      -4.599   5.376  21.424  0.00  0.00    +0.367 C 
ATOM     24  OD2 ASP A   4      -3.596   5.418  22.144  0.00  0.00    -0.246 OA
ATOM     25  OD1 ASP A   4      -5.680   5.930  21.720  0.00  0.00    -0.246 OA
ENDBRANCH  22  23
ENDBRANCH   7  22
ENDBRANCH   4   7
ENDBRANCH   1   3
BRANCH   1  28
ATOM     26  C   LEU A   2       0.437   0.372  20.229  0.00  0.00    +0.241 C 
ATOM     27  O   LEU A   2       0.007  -0.549  20.907  0.00  0.00    -0.273 OA
ATOM     28  N   ALA A   3       0.021   1.627  20.365  0.00  0.00    -0.297 N 
ATOM     29  H   ALA A   3       0.454   2.360  19.767  0.00  0.00    +0.150 HD
BRANCH  26  30
ATOM     30  CA  LEU A   2       1.527   0.117  19.183  0.00  0.00    +0.149 C 
BRANCH  30  33
ATOM     31  C   LYS A   1       3.591  -0.262  20.423  0.00  0.00    +0.238 C 
ATOM     32  O   LYS A   1       3.825   0.939  20.555  0.00  0.00    -0.274 OA
ATOM     33  N   LEU A   2       2.530  -0.743  19.783  0.00  0.00    -0.297 N 
ATOM     34  H   LEU A   2       2.414  -1.774  19.710  0.00  0.00    +0.150 HD
BRANCH  31  35
ATOM     35  CA  LYS A   1       4.519  -1.307  21.008  0.00  0.00    +0.145 C 
BRANCH  35  36
ATOM     36  N   LYS A   1       5.877  -0.868  21.267  0.00  0.00    -0.238 NA
ATOM     37  H   LYS A   1       6.043   0.040  21.747  0.00  0.00    +0.142 HD
ENDBRANCH  35  36
BRANCH  35  38
ATOM     38  CB  LYS A   1       3.901  -1.834  22.304  0.00  0.00    +0.026 C 
BRANCH  38  39
ATOM     39  CG  LYS A   1       4.771  -2.821  23.063  0.00  0.00    -0.000 C 
BRANCH  39  40
ATOM     40  CD  LYS A   1       3.964  -3.531  24.141  0.00  0.00    -0.024 C 
BRANCH  40  41
ATOM     41  CE  LYS A   1       4.799  -4.604  24.859  0.00  0.00    -0.086 C 
BRANCH  41  42
ATOM     42  NZ  LYS A   1       4.054  -5.325  25.945  0.00  0.00    +0.380 N 
ATOM     43  HZ1 LYS A   1       3.745  -4.641  26.665  0.00  0.00    -0.089 HD
ATOM     44  HZ2 LYS A   1       4.679  -6.031  26.383  0.00  0.00    -0.089 HD
ATOM     45  HZ3 LYS A   1       3.224  -5.800  25.537  0.00  0.00    -0.089 HD
ENDBRANCH  41  42
ENDBRANCH  40  41
ENDBRANCH  39  40
ENDBRANCH  38  39
ENDBRANCH  35  38
ENDBRANCH  31  35
ENDBRANCH  30  33
BRANCH  30  46
ATOM     46  CB  LEU A   2       0.929  -0.574  17.965  0.00  0.00    +0.029 C 
BRANCH  46  47
ATOM     47  CG  LEU A   2       1.940  -1.029  16.906  0.00  0.00    +0.002 C 
ATOM     48  CD2 LEU A   2       1.426  -2.288  16.191  0.00  0.00    +0.000 C 
ATOM     49  CD1 LEU A   2       2.200   0.112  15.918  0.00  0.00    +0.000 C 
ENDBRANCH  46  47
ENDBRANCH  30  46
ENDBRANCH  26  30
ENDBRANCH   1  28
TORSDOF 21
REMARK  Name = ../refined-set-2016/1pxn/1pxn_pocket.pdb
REMARK  218 active torsions:
REMARK  status: ('A' for Active; 'I' for Inactive)
REMARK    1  A    between atoms: _1  and  _3
REMARK    2  A    between atoms: _3  and  _4
REMARK    3  A    between atoms: _3  and  _6
REMARK    4  A    between atoms: _6  and  _7
REMARK    5  A    between atoms: _7  and  _8
REMARK    6  A    between atoms: _11  and  _13
REMARK    7  A    between atoms: _13  and  _14
REMARK    8  A    between atoms: _13  and  _16
REMARK    9  A    between atoms: _16  and  _17
REMARK   10  A    between atoms: _17  and  _18
REMARK   11  A    between atoms: _18  and  _19
REMARK   12  A    between atoms: _19  and  _20
REMARK   13  A    between atoms: _24  and  _26
REMARK   14  A    between atoms: _26  and  _27
REMARK   15  A    between atoms: _26  and  _29
REMARK   16  A    between atoms: _29  and  _30
REMARK   17  A    between atoms: _33  and  _35
REMARK   18  A    between atoms: _35  and  _36
REMARK   19  A    between atoms: _38  and  _40
REMARK   20  A    between atoms: _40  and  _41
REMARK   21  A    between atoms: _40  and  _43
REMARK   22  A    between atoms: _43  and  _44
REMARK   23  A    between atoms: _44  and  _45
REMARK   24  A    between atoms: _48  and  _50
REMARK   25  A    between atoms: _50  and  _51
REMARK   26  A    between atoms: _53  and  _55
REMARK   27  A    between atoms: _55  and  _56
REMARK   28  A    between atoms: _55  and  _58
REMARK   29  A    between atoms: _58  and  _59
REMARK   30  A    between atoms: _62  and  _64
REMARK   31  A    between atoms: _64  and  _65
REMARK   32  A    between atoms: _64  and  _67
REMARK   33  A    between atoms: _67  and  _68
REMARK   34  A    between atoms: _73  and  _74
REMARK   35  A    between atoms: _76  and  _78
REMARK   36  A    between atoms: _78  and  _79
REMARK   37  A    between atoms: _81  and  _83
REMARK   38  A    between atoms: _83  and  _84
REMARK   39  A    between atoms: _83  and  _86
REMARK   40  A    between atoms: _89  and  _91
REMARK   41  A    between atoms: _91  and  _92
REMARK   42  A    between atoms: _91  and  _94
REMARK   43  A    between atoms: _97  and  _99
REMARK   44  A    between atoms: _99  and  _100
REMARK   45  A    between atoms: _99  and  _102
REMARK   46  A    between atoms: _102  and  _103
REMARK   47  A    between atoms: _108  and  _109
REMARK   48  A    between atoms: _111  and  _113
REMARK   49  A    between atoms: _113  and  _114
REMARK   50  A    between atoms: _113  and  _116
REMARK   51  A    between atoms: _116  and  _117
REMARK   52  A    between atoms: _117  and  _118
REMARK   53  A    between atoms: _118  and  _119
REMARK   54  A    between atoms: _119  and  _120
REMARK   55  A    between atoms: _124  and  _126
REMARK   56  A    between atoms: _126  and  _127
REMARK   57  A    between atoms: _130  and  _132
REMARK   58  A    between atoms: _132  and  _133
REMARK   59  A    between atoms: _132  and  _135
REMARK   60  A    between atoms: _138  and  _140
REMARK   61  A    between atoms: _140  and  _141
REMARK   62  A    between atoms: _140  and  _143
REMARK   63  A    between atoms: _146  and  _148
REMARK   64  A    between atoms: _148  and  _149
REMARK   65  A    between atoms: _152  and  _154
REMARK   66  A    between atoms: _154  and  _155
REMARK   67  A    between atoms: _154  and  _157
REMARK   68  A    between atoms: _157  and  _158
REMARK   69  A    between atoms: _161  and  _163
REMARK   70  A    between atoms: _163  and  _164
REMARK   71  A    between atoms: _163  and  _166
REMARK   72  A    between atoms: _166  and  _167
REMARK   73  A    between atoms: _167  and  _168
REMARK   74  A    between atoms: _168  and  _169
REMARK   75  A    between atoms: _169  and  _170
REMARK   76  A    between atoms: _174  and  _176
REMARK   77  A    between atoms: _176  and  _177
REMARK   78  A    between atoms: _176  and  _179
REMARK   79  A    between atoms: _182  and  _184
REMARK   80  A    between atoms: _184  and  _185
REMARK   81  A    between atoms: _184  and  _187
REMARK   82  A    between atoms: _187  and  _188
REMARK   83  A    between atoms: _188  and  _189
REMARK   84  A    between atoms: _189  and  _190
REMARK   85  A    between atoms: _190  and  _191
REMARK   86  A    between atoms: _195  and  _197
REMARK   87  A    between atoms: _197  and  _198
REMARK   88  A    between atoms: _197  and  _200
REMARK   89  A    between atoms: _200  and  _201
REMARK   90  A    between atoms: _204  and  _206
REMARK   91  A    between atoms: _206  and  _207
REMARK   92  A    between atoms: _206  and  _209
REMARK   93  A    between atoms: _209  and  _210
REMARK   94  A    between atoms: _213  and  _215
REMARK   95  A    between atoms: _215  and  _216
REMARK   96  A    between atoms: _215  and  _218
REMARK   97  A    between atoms: _218  and  _219
REMARK   98  A    between atoms: _222  and  _224
REMARK   99  A    between atoms: _224  and  _225
REMARK  100  A    between atoms: _224  and  _227
REMARK  101  A    between atoms: _230  and  _232
REMARK  102  A    between atoms: _232  and  _233
REMARK  103  A    between atoms: _232  and  _235
REMARK  104  A    between atoms: _235  and  _236
REMARK  105  A    between atoms: _242  and  _244
REMARK  106  A    between atoms: _244  and  _245
REMARK  107  A    between atoms: _244  and  _247
REMARK  108  A    between atoms: _247  and  _248
REMARK  109  A    between atoms: _248  and  _249
REMARK  110  A    between atoms: _252  and  _254
REMARK  111  A    between atoms: _254  and  _255
REMARK  112  A    between atoms: _254  and  _257
REMARK  113  A    between atoms: _257  and  _258
REMARK  114  A    between atoms: _264  and  _266
REMARK  115  A    between atoms: _266  and  _267
REMARK  116  A    between atoms: _266  and  _269
REMARK  117  A    between atoms: _269  and  _270
REMARK  118  A    between atoms: _273  and  _275
REMARK  119  A    between atoms: _275  and  _276
REMARK  120  A    between atoms: _275  and  _278
REMARK  121  A    between atoms: _278  and  _279
REMARK  122  A    between atoms: _284  and  _286
REMARK  123  A    between atoms: _286  and  _287
REMARK  124  A    between atoms: _286  and  _289
REMARK  125  A    between atoms: _289  and  _290
REMARK  126  A    between atoms: _290  and  _291
REMARK  127  A    between atoms: _296  and  _298
REMARK  128  A    between atoms: _298  and  _299
REMARK  129  A    between atoms: _298  and  _301
REMARK  130  A    between atoms: _301  and  _302
REMARK  131  A    between atoms: _305  and  _307
REMARK  132  A    between atoms: _307  and  _308
REMARK  133  A    between atoms: _307  and  _310
REMARK  134  A    between atoms: _310  and  _311
REMARK  135  A    between atoms: _314  and  _316
REMARK  136  A    between atoms: _316  and  _317
REMARK  137  A    between atoms: _316  and  _319
REMARK  138  A    between atoms: _319  and  _320
REMARK  139  A    between atoms: _320  and  _321
REMARK  140  A    between atoms: _321  and  _322
REMARK  141  A    between atoms: _322  and  _323
REMARK  142  A    between atoms: _327  and  _329
REMARK  143  A    between atoms: _329  and  _330
REMARK  144  A    between atoms: _329  and  _332
REMARK  145  A    between atoms: _332  and  _333
REMARK  146  A    between atoms: _333  and  _334
REMARK  147  A    between atoms: _334  and  _335
REMARK  148  A    between atoms: _335  and  _336
REMARK  149  A    between atoms: _340  and  _342
REMARK  150  A    between atoms: _342  and  _343
REMARK  151  A    between atoms: _342  and  _345
REMARK  152  A    between atoms: _345  and  _346
REMARK  153  A    between atoms: _352  and  _354
REMARK  154  A    between atoms: _354  and  _355
REMARK  155  A    between atoms: _354  and  _357
REMARK  156  A    between atoms: _357  and  _358
REMARK  157  A    between atoms: _363  and  _365
REMARK  158  A    between atoms: _365  and  _366
REMARK  159  A    between atoms: _365  and  _368
REMARK  160  A    between atoms: _368  and  _369
REMARK  161  A    between atoms: _369  and  _370
REMARK  162  A    between atoms: _370  and  _371
REMARK  163  A    between atoms: _371  and  _372
REMARK  164  A    between atoms: _377  and  _378
REMARK  165  A    between atoms: _383  and  _385
REMARK  166  A    between atoms: _385  and  _386
REMARK  167  A    between atoms: _385  and  _388
REMARK  168  A    between atoms: _388  and  _389
REMARK  169  A    between atoms: _389  and  _390
REMARK  170  A    between atoms: _395  and  _397
REMARK  171  A    between atoms: _397  and  _398
REMARK  172  A    between atoms: _397  and  _400
REMARK  173  A    between atoms: _400  and  _401
REMARK  174  A    between atoms: _406  and  _408
REMARK  175  A    between atoms: _408  and  _409
REMARK  176  A    between atoms: _408  and  _411
REMARK  177  A    between atoms: _411  and  _412
REMARK  178  A    between atoms: _415  and  _417
REMARK  179  A    between atoms: _417  and  _418
REMARK  180  A    between atoms: _417  and  _420
REMARK  181  A    between atoms: _420  and  _421
REMARK  182  A    between atoms: _424  and  _426
REMARK  183  A    between atoms: _426  and  _427
REMARK  184  A    between atoms: _426  and  _429
REMARK  185  A    between atoms: _429  and  _430
REMARK  186  A    between atoms: _433  and  _435
REMARK  187  A    between atoms: _435  and  _436
REMARK  188  A    between atoms: _435  and  _438
REMARK  189  A    between atoms: _438  and  _439
REMARK  190  A    between atoms: _439  and  _440
REMARK  191  A    between atoms: _440  and  _441
REMARK  192  A    between atoms: _441  and  _442
REMARK  193  A    between atoms: _446  and  _448
REMARK  194  A    between atoms: _448  and  _449
REMARK  195  A    between atoms: _448  and  _451
REMARK  196  A    between atoms: _451  and  _452
REMARK  197  A    between atoms: _455  and  _457
REMARK  198  A    between atoms: _457  and  _458
REMARK  199  A    between atoms: _461  and  _463
REMARK  200  A    between atoms: _463  and  _464
REMARK  201  A    between atoms: _463  and  _466
REMARK  202  A    between atoms: _466  and  _467
REMARK  203  A    between atoms: _470  and  _472
REMARK  204  A    between atoms: _472  and  _473
REMARK  205  A    between atoms: _472  and  _475
REMARK  206  A    between atoms: _475  and  _476
REMARK  207  A    between atoms: _482  and  _484
REMARK  208  A    between atoms: _484  and  _485
REMARK  209  A    between atoms: _484  and  _487
REMARK  210  A    between atoms: _487  and  _488
REMARK  211  A    between atoms: _491  and  _493
REMARK  212  A    between atoms: _493  and  _494
REMARK  213  A    between atoms: _493  and  _496
REMARK  214  A    between atoms: _496  and  _497
REMARK  215  A    between atoms: _500  and  _502
REMARK  216  A    between atoms: _502  and  _503
REMARK  217  A    between atoms: _502  and  _505
REMARK  218  A    between atoms: _505  and  _506
REMARK                            x       y       z     vdW  Elec       q    Type
REMARK                         _______ _______ _______ _____ _____    ______ ____
ROOT
ATOM      1  CA  LEU A   1      -9.338   3.103  18.179  0.00  0.00    +0.133 C 
ENDROOT
BRANCH   1   2
ATOM      2  N   LEU A   1      -8.433   2.164  17.530  0.00  0.00    -0.239 NA
ATOM      3  H   LEU A   1      -7.417   2.197  17.750  0.00  0.00    +0.142 HD
ENDBRANCH   1   2
BRANCH   1   4
ATOM      4  C   LEU A   1      -9.901   4.092  17.170  0.00  0.00    +0.224 C 
ATOM      5  O   LEU A   1     -10.489   5.107  17.538  0.00  0.00    -0.287 OA
ENDBRANCH   1   4
BRANCH   1   6
ATOM      6  CB  LEU A   1      -8.628   3.852  19.310  0.00  0.00    +0.025 C 
BRANCH   6   7
ATOM      7  CG  LEU A   1      -8.705   3.206  20.697  0.00  0.00    +0.002 C 
ATOM      8  CD2 LEU A   1      -8.159   4.168  21.734  0.00  0.00    +0.000 C 
ATOM      9  CD1 LEU A   1      -7.921   1.907  20.717  0.00  0.00    +0.000 C 
ENDBRANCH   6   7
ENDBRANCH   1   6
TORSDOF 4
REMARK  Name = ../refined-set-2016/1pxn/1pxn_pocket.pdb
REMARK  218 active torsions:
REMARK  status: ('A' for Active; 'I' for Inactive)
REMARK    1  A    between atoms: _1  and  _3
REMARK    2  A    between atoms: _3  and  _4
REMARK    3  A    between atoms: _3  and  _6
REMARK    4  A    between atoms: _6  and  _7
REMARK    5  A    between atoms: _7  and  _8
REMARK    6  A    between atoms: _11  and  _13
REMARK    7  A    between atoms: _13  and  _14
REMARK    8  A    between atoms: _13  and  _16
REMARK    9  A    between atoms: _16  and  _17
REMARK   10  A    between atoms: _17  and  _18
REMARK   11  A    between atoms: _18  and  _19
REMARK   12  A    between atoms: _19  and  _20
REMARK   13  A    between atoms: _24  and  _26
REMARK   14  A    between atoms: _26  and  _27
REMARK   15  A    between atoms: _26  and  _29
REMARK   16  A    between atoms: _29  and  _30
REMARK   17  A    between atoms: _33  and  _35
REMARK   18  A    between atoms: _35  and  _36
REMARK   19  A    between atoms: _38  and  _40
REMARK   20  A    between atoms: _40  and  _41
REMARK   21  A    between atoms: _40  and  _43
REMARK   22  A    between atoms: _43  and  _44
REMARK   23  A    between atoms: _44  and  _45
REMARK   24  A    between atoms: _48  and  _50
REMARK   25  A    between atoms: _50  and  _51
REMARK   26  A    between atoms: _53  and  _55
REMARK   27  A    between atoms: _55  and  _56
REMARK   28  A    between atoms: _55  and  _58
REMARK   29  A    between atoms: _58  and  _59
REMARK   30  A    between atoms: _62  and  _64
REMARK   31  A    between atoms: _64  and  _65
REMARK   32  A    between atoms: _64  and  _67
REMARK   33  A    between atoms: _67  and  _68
REMARK   34  A    between atoms: _73  and  _74
REMARK   35  A    between atoms: _76  and  _78
REMARK   36  A    between atoms: _78  and  _79
REMARK   37  A    between atoms: _81  and  _83
REMARK   38  A    between atoms: _83  and  _84
REMARK   39  A    between atoms: _83  and  _86
REMARK   40  A    between atoms: _89  and  _91
REMARK   41  A    between atoms: _91  and  _92
REMARK   42  A    between atoms: _91  and  _94
REMARK   43  A    between atoms: _97  and  _99
REMARK   44  A    between atoms: _99  and  _100
REMARK   45  A    between atoms: _99  and  _102
REMARK   46  A    between atoms: _102  and  _103
REMARK   47  A    between atoms: _108  and  _109
REMARK   48  A    between atoms: _111  and  _113
REMARK   49  A    between atoms: _113  and  _114
REMARK   50  A    between atoms: _113  and  _116
REMARK   51  A    between atoms: _116  and  _117
REMARK   52  A    between atoms: _117  and  _118
REMARK   53  A    between atoms: _118  and  _119
REMARK   54  A    between atoms: _119  and  _120
REMARK   55  A    between atoms: _124  and  _126
REMARK   56  A    between atoms: _126  and  _127
REMARK   57  A    between atoms: _130  and  _132
REMARK   58  A    between atoms: _132  and  _133
REMARK   59  A    between atoms: _132  and  _135
REMARK   60  A    between atoms: _138  and  _140
REMARK   61  A    between atoms: _140  and  _141
REMARK   62  A    between atoms: _140  and  _143
REMARK   63  A    between atoms: _146  and  _148
REMARK   64  A    between atoms: _148  and  _149
REMARK   65  A    between atoms: _152  and  _154
REMARK   66  A    between atoms: _154  and  _155
REMARK   67  A    between atoms: _154  and  _157
REMARK   68  A    between atoms: _157  and  _158
REMARK   69  A    between atoms: _161  and  _163
REMARK   70  A    between atoms: _163  and  _164
REMARK   71  A    between atoms: _163  and  _166
REMARK   72  A    between atoms: _166  and  _167
REMARK   73  A    between atoms: _167  and  _168
REMARK   74  A    between atoms: _168  and  _169
REMARK   75  A    between atoms: _169  and  _170
REMARK   76  A    between atoms: _174  and  _176
REMARK   77  A    between atoms: _176  and  _177
REMARK   78  A    between atoms: _176  and  _179
REMARK   79  A    between atoms: _182  and  _184
REMARK   80  A    between atoms: _184  and  _185
REMARK   81  A    between atoms: _184  and  _187
REMARK   82  A    between atoms: _187  and  _188
REMARK   83  A    between atoms: _188  and  _189
REMARK   84  A    between atoms: _189  and  _190
REMARK   85  A    between atoms: _190  and  _191
REMARK   86  A    between atoms: _195  and  _197
REMARK   87  A    between atoms: _197  and  _198
REMARK   88  A    between atoms: _197  and  _200
REMARK   89  A    between atoms: _200  and  _201
REMARK   90  A    between atoms: _204  and  _206
REMARK   91  A    between atoms: _206  and  _207
REMARK   92  A    between atoms: _206  and  _209
REMARK   93  A    between atoms: _209  and  _210
REMARK   94  A    between atoms: _213  and  _215
REMARK   95  A    between atoms: _215  and  _216
REMARK   96  A    between atoms: _215  and  _218
REMARK   97  A    between atoms: _218  and  _219
REMARK   98  A    between atoms: _222  and  _224
REMARK   99  A    between atoms: _224  and  _225
REMARK  100  A    between atoms: _224  and  _227
REMARK  101  A    between atoms: _230  and  _232
REMARK  102  A    between atoms: _232  and  _233
REMARK  103  A    between atoms: _232  and  _235
REMARK  104  A    between atoms: _235  and  _236
REMARK  105  A    between atoms: _242  and  _244
REMARK  106  A    between atoms: _244  and  _245
REMARK  107  A    between atoms: _244  and  _247
REMARK  108  A    between atoms: _247  and  _248
REMARK  109  A    between atoms: _248  and  _249
REMARK  110  A    between atoms: _252  and  _254
REMARK  111  A    between atoms: _254  and  _255
REMARK  112  A    between atoms: _254  and  _257
REMARK  113  A    between atoms: _257  and  _258
REMARK  114  A    between atoms: _264  and  _266
REMARK  115  A    between atoms: _266  and  _267
REMARK  116  A    between atoms: _266  and  _269
REMARK  117  A    between atoms: _269  and  _270
REMARK  118  A    between atoms: _273  and  _275
REMARK  119  A    between atoms: _275  and  _276
REMARK  120  A    between atoms: _275  and  _278
REMARK  121  A    between atoms: _278  and  _279
REMARK  122  A    between atoms: _284  and  _286
REMARK  123  A    between atoms: _286  and  _287
REMARK  124  A    between atoms: _286  and  _289
REMARK  125  A    between atoms: _289  and  _290
REMARK  126  A    between atoms: _290  and  _291
REMARK  127  A    between atoms: _296  and  _298
REMARK  128  A    between atoms: _298  and  _299
REMARK  129  A    between atoms: _298  and  _301
REMARK  130  A    between atoms: _301  and  _302
REMARK  131  A    between atoms: _305  and  _307
REMARK  132  A    between atoms: _307  and  _308
REMARK  133  A    between atoms: _307  and  _310
REMARK  134  A    between atoms: _310  and  _311
REMARK  135  A    between atoms: _314  and  _316
REMARK  136  A    between atoms: _316  and  _317
REMARK  137  A    between atoms: _316  and  _319
REMARK  138  A    between atoms: _319  and  _320
REMARK  139  A    between atoms: _320  and  _321
REMARK  140  A    between atoms: _321  and  _322
REMARK  141  A    between atoms: _322  and  _323
REMARK  142  A    between atoms: _327  and  _329
REMARK  143  A    between atoms: _329  and  _330
REMARK  144  A    between atoms: _329  and  _332
REMARK  145  A    between atoms: _332  and  _333
REMARK  146  A    between atoms: _333  and  _334
REMARK  147  A    between atoms: _334  and  _335
REMARK  148  A    between atoms: _335  and  _336
REMARK  149  A    between atoms: _340  and  _342
REMARK  150  A    between atoms: _342  and  _343
REMARK  151  A    between atoms: _342  and  _345
REMARK  152  A    between atoms: _345  and  _346
REMARK  153  A    between atoms: _352  and  _354
REMARK  154  A    between atoms: _354  and  _355
REMARK  155  A    between atoms: _354  and  _357
REMARK  156  A    between atoms: _357  and  _358
REMARK  157  A    between atoms: _363  and  _365
REMARK  158  A    between atoms: _365  and  _366
REMARK  159  A    between atoms: _365  and  _368
REMARK  160  A    between atoms: _368  and  _369
REMARK  161  A    between atoms: _369  and  _370
REMARK  162  A    between atoms: _370  and  _371
REMARK  163  A    between atoms: _371  and  _372
REMARK  164  A    between atoms: _377  and  _378
REMARK  165  A    between atoms: _383  and  _385
REMARK  166  A    between atoms: _385  and  _386
REMARK  167  A    between atoms: _385  and  _388
REMARK  168  A    between atoms: _388  and  _389
REMARK  169  A    between atoms: _389  and  _390
REMARK  170  A    between atoms: _395  and  _397
REMARK  171  A    between atoms: _397  and  _398
REMARK  172  A    between atoms: _397  and  _400
REMARK  173  A    between atoms: _400  and  _401
REMARK  174  A    between atoms: _406  and  _408
REMARK  175  A    between atoms: _408  and  _409
REMARK  176  A    between atoms: _408  and  _411
REMARK  177  A    between atoms: _411  and  _412
REMARK  178  A    between atoms: _415  and  _417
REMARK  179  A    between atoms: _417  and  _418
REMARK  180  A    between atoms: _417  and  _420
REMARK  181  A    between atoms: _420  and  _421
REMARK  182  A    between atoms: _424  and  _426
REMARK  183  A    between atoms: _426  and  _427
REMARK  184  A    between atoms: _426  and  _429
REMARK  185  A    between atoms: _429  and  _430
REMARK  186  A    between atoms: _433  and  _435
REMARK  187  A    between atoms: _435  and  _436
REMARK  188  A    between atoms: _435  and  _438
REMARK  189  A    between atoms: _438  and  _439
REMARK  190  A    between atoms: _439  and  _440
REMARK  191  A    between atoms: _440  and  _441
REMARK  192  A    between atoms: _441  and  _442
REMARK  193  A    between atoms: _446  and  _448
REMARK  194  A    between atoms: _448  and  _449
REMARK  195  A    between atoms: _448  and  _451
REMARK  196  A    between atoms: _451  and  _452
REMARK  197  A    between atoms: _455  and  _457
REMARK  198  A    between atoms: _457  and  _458
REMARK  199  A    between atoms: _461  and  _463
REMARK  200  A    between atoms: _463  and  _464
REMARK  201  A    between atoms: _463  and  _466
REMARK  202  A    between atoms: _466  and  _467
REMARK  203  A    between atoms: _470  and  _472
REMARK  204  A    between atoms: _472  and  _473
REMARK  205  A    between atoms: _472  and  _475
REMARK  206  A    between atoms: _475  and  _476
REMARK  207  A    between atoms: _482  and  _484
REMARK  208  A    between atoms: _484  and  _485
REMARK  209  A    between atoms: _484  and  _487
REMARK  210  A    between atoms: _487  and  _488
REMARK  211  A    between atoms: _491  and  _493
REMARK  212  A    between atoms: _493  and  _494
REMARK  213  A    between atoms: _493  and  _496
REMARK  214  A    between atoms: _496  and  _497
REMARK  215  A    between atoms: _500  and  _502
REMARK  216  A    between atoms: _502  and  _503
REMARK  217  A    between atoms: _502  and  _505
REMARK  218  A    between atoms: _505  and  _506
REMARK                            x       y       z     vdW  Elec       q    Type
REMARK                         _______ _______ _______ _____ _____    ______ ____
ROOT
ATOM      1  CA  LEU A   1      16.089   5.687  28.501  0.00  0.00    +0.133 C 
ENDROOT
BRANCH   1   2
ATOM      2  N   LEU A   1      17.185   4.810  28.110  0.00  0.00    -0.239 NA
ATOM      3  H   LEU A   1      17.215   3.843  28.491  0.00  0.00    +0.142 HD
ENDBRANCH   1   2
BRANCH   1   4
ATOM      4  C   LEU A   1      16.407   6.617  29.639  0.00  0.00    +0.224 C 
ATOM      5  O   LEU A   1      17.131   6.256  30.572  0.00  0.00    -0.287 OA
ENDBRANCH   1   4
BRANCH   1   6
ATOM      6  CB  LEU A   1      14.856   4.870  28.900  0.00  0.00    +0.025 C 
BRANCH   6   7
ATOM      7  CG  LEU A   1      13.913   4.385  27.807  0.00  0.00    +0.002 C 
ATOM      8  CD2 LEU A   1      12.896   3.399  28.381  0.00  0.00    +0.000 C 
ATOM      9  CD1 LEU A   1      14.716   3.744  26.730  0.00  0.00    +0.000 C 
ENDBRANCH   6   7
ENDBRANCH   1   6
TORSDOF 4
REMARK  Name = ../refined-set-2016/1pxn/1pxn_pocket.pdb
REMARK  218 active torsions:
REMARK  status: ('A' for Active; 'I' for Inactive)
REMARK    1  A    between atoms: _1  and  _3
REMARK    2  A    between atoms: _3  and  _4
REMARK    3  A    between atoms: _3  and  _6
REMARK    4  A    between atoms: _6  and  _7
REMARK    5  A    between atoms: _7  and  _8
REMARK    6  A    between atoms: _11  and  _13
REMARK    7  A    between atoms: _13  and  _14
REMARK    8  A    between atoms: _13  and  _16
REMARK    9  A    between atoms: _16  and  _17
REMARK   10  A    between atoms: _17  and  _18
REMARK   11  A    between atoms: _18  and  _19
REMARK   12  A    between atoms: _19  and  _20
REMARK   13  A    between atoms: _24  and  _26
REMARK   14  A    between atoms: _26  and  _27
REMARK   15  A    between atoms: _26  and  _29
REMARK   16  A    between atoms: _29  and  _30
REMARK   17  A    between atoms: _33  and  _35
REMARK   18  A    between atoms: _35  and  _36
REMARK   19  A    between atoms: _38  and  _40
REMARK   20  A    between atoms: _40  and  _41
REMARK   21  A    between atoms: _40  and  _43
REMARK   22  A    between atoms: _43  and  _44
REMARK   23  A    between atoms: _44  and  _45
REMARK   24  A    between atoms: _48  and  _50
REMARK   25  A    between atoms: _50  and  _51
REMARK   26  A    between atoms: _53  and  _55
REMARK   27  A    between atoms: _55  and  _56
REMARK   28  A    between atoms: _55  and  _58
REMARK   29  A    between atoms: _58  and  _59
REMARK   30  A    between atoms: _62  and  _64
REMARK   31  A    between atoms: _64  and  _65
REMARK   32  A    between atoms: _64  and  _67
REMARK   33  A    between atoms: _67  and  _68
REMARK   34  A    between atoms: _73  and  _74
REMARK   35  A    between atoms: _76  and  _78
REMARK   36  A    between atoms: _78  and  _79
REMARK   37  A    between atoms: _81  and  _83
REMARK   38  A    between atoms: _83  and  _84
REMARK   39  A    between atoms: _83  and  _86
REMARK   40  A    between atoms: _89  and  _91
REMARK   41  A    between atoms: _91  and  _92
REMARK   42  A    between atoms: _91  and  _94
REMARK   43  A    between atoms: _97  and  _99
REMARK   44  A    between atoms: _99  and  _100
REMARK   45  A    between atoms: _99  and  _102
REMARK   46  A    between atoms: _102  and  _103
REMARK   47  A    between atoms: _108  and  _109
REMARK   48  A    between atoms: _111  and  _113
REMARK   49  A    between atoms: _113  and  _114
REMARK   50  A    between atoms: _113  and  _116
REMARK   51  A    between atoms: _116  and  _117
REMARK   52  A    between atoms: _117  and  _118
REMARK   53  A    between atoms: _118  and  _119
REMARK   54  A    between atoms: _119  and  _120
REMARK   55  A    between atoms: _124  and  _126
REMARK   56  A    between atoms: _126  and  _127
REMARK   57  A    between atoms: _130  and  _132
REMARK   58  A    between atoms: _132  and  _133
REMARK   59  A    between atoms: _132  and  _135
REMARK   60  A    between atoms: _138  and  _140
REMARK   61  A    between atoms: _140  and  _141
REMARK   62  A    between atoms: _140  and  _143
REMARK   63  A    between atoms: _146  and  _148
REMARK   64  A    between atoms: _148  and  _149
REMARK   65  A    between atoms: _152  and  _154
REMARK   66  A    between atoms: _154  and  _155
REMARK   67  A    between atoms: _154  and  _157
REMARK   68  A    between atoms: _157  and  _158
REMARK   69  A    between atoms: _161  and  _163
REMARK   70  A    between atoms: _163  and  _164
REMARK   71  A    between atoms: _163  and  _166
REMARK   72  A    between atoms: _166  and  _167
REMARK   73  A    between atoms: _167  and  _168
REMARK   74  A    between atoms: _168  and  _169
REMARK   75  A    between atoms: _169  and  _170
REMARK   76  A    between atoms: _174  and  _176
REMARK   77  A    between atoms: _176  and  _177
REMARK   78  A    between atoms: _176  and  _179
REMARK   79  A    between atoms: _182  and  _184
REMARK   80  A    between atoms: _184  and  _185
REMARK   81  A    between atoms: _184  and  _187
REMARK   82  A    between atoms: _187  and  _188
REMARK   83  A    between atoms: _188  and  _189
REMARK   84  A    between atoms: _189  and  _190
REMARK   85  A    between atoms: _190  and  _191
REMARK   86  A    between atoms: _195  and  _197
REMARK   87  A    between atoms: _197  and  _198
REMARK   88  A    between atoms: _197  and  _200
REMARK   89  A    between atoms: _200  and  _201
REMARK   90  A    between atoms: _204  and  _206
REMARK   91  A    between atoms: _206  and  _207
REMARK   92  A    between atoms: _206  and  _209
REMARK   93  A    between atoms: _209  and  _210
REMARK   94  A    between atoms: _213  and  _215
REMARK   95  A    between atoms: _215  and  _216
REMARK   96  A    between atoms: _215  and  _218
REMARK   97  A    between atoms: _218  and  _219
REMARK   98  A    between atoms: _222  and  _224
REMARK   99  A    between atoms: _224  and  _225
REMARK  100  A    between atoms: _224  and  _227
REMARK  101  A    between atoms: _230  and  _232
REMARK  102  A    between atoms: _232  and  _233
REMARK  103  A    between atoms: _232  and  _235
REMARK  104  A    between atoms: _235  and  _236
REMARK  105  A    between atoms: _242  and  _244
REMARK  106  A    between atoms: _244  and  _245
REMARK  107  A    between atoms: _244  and  _247
REMARK  108  A    between atoms: _247  and  _248
REMARK  109  A    between atoms: _248  and  _249
REMARK  110  A    between atoms: _252  and  _254
REMARK  111  A    between atoms: _254  and  _255
REMARK  112  A    between atoms: _254  and  _257
REMARK  113  A    between atoms: _257  and  _258
REMARK  114  A    between atoms: _264  and  _266
REMARK  115  A    between atoms: _266  and  _267
REMARK  116  A    between atoms: _266  and  _269
REMARK  117  A    between atoms: _269  and  _270
REMARK  118  A    between atoms: _273  and  _275
REMARK  119  A    between atoms: _275  and  _276
REMARK  120  A    between atoms: _275  and  _278
REMARK  121  A    between atoms: _278  and  _279
REMARK  122  A    between atoms: _284  and  _286
REMARK  123  A    between atoms: _286  and  _287
REMARK  124  A    between atoms: _286  and  _289
REMARK  125  A    between atoms: _289  and  _290
REMARK  126  A    between atoms: _290  and  _291
REMARK  127  A    between atoms: _296  and  _298
REMARK  128  A    between atoms: _298  and  _299
REMARK  129  A    between atoms: _298  and  _301
REMARK  130  A    between atoms: _301  and  _302
REMARK  131  A    between atoms: _305  and  _307
REMARK  132  A    between atoms: _307  and  _308
REMARK  133  A    between atoms: _307  and  _310
REMARK  134  A    between atoms: _310  and  _311
REMARK  135  A    between atoms: _314  and  _316
REMARK  136  A    between atoms: _316  and  _317
REMARK  137  A    between atoms: _316  and  _319
REMARK  138  A    between atoms: _319  and  _320
REMARK  139  A    between atoms: _320  and  _321
REMARK  140  A    between atoms: _321  and  _322
REMARK  141  A    between atoms: _322  and  _323
REMARK  142  A    between atoms: _327  and  _329
REMARK  143  A    between atoms: _329  and  _330
REMARK  144  A    between atoms: _329  and  _332
REMARK  145  A    between atoms: _332  and  _333
REMARK  146  A    between atoms: _333  and  _334
REMARK  147  A    between atoms: _334  and  _335
REMARK  148  A    between atoms: _335  and  _336
REMARK  149  A    between atoms: _340  and  _342
REMARK  150  A    between atoms: _342  and  _343
REMARK  151  A    between atoms: _342  and  _345
REMARK  152  A    between atoms: _345  and  _346
REMARK  153  A    between atoms: _352  and  _354
REMARK  154  A    between atoms: _354  and  _355
REMARK  155  A    between atoms: _354  and  _357
REMARK  156  A    between atoms: _357  and  _358
REMARK  157  A    between atoms: _363  and  _365
REMARK  158  A    between atoms: _365  and  _366
REMARK  159  A    between atoms: _365  and  _368
REMARK  160  A    between atoms: _368  and  _369
REMARK  161  A    between atoms: _369  and  _370
REMARK  162  A    between atoms: _370  and  _371
REMARK  163  A    between atoms: _371  and  _372
REMARK  164  A    between atoms: _377  and  _378
REMARK  165  A    between atoms: _383  and  _385
REMARK  166  A    between atoms: _385  and  _386
REMARK  167  A    between atoms: _385  and  _388
REMARK  168  A    between atoms: _388  and  _389
REMARK  169  A    between atoms: _389  and  _390
REMARK  170  A    between atoms: _395  and  _397
REMARK  171  A    between atoms: _397  and  _398
REMARK  172  A    between atoms: _397  and  _400
REMARK  173  A    between atoms: _400  and  _401
REMARK  174  A    between atoms: _406  and  _408
REMARK  175  A    between atoms: _408  and  _409
REMARK  176  A    between atoms: _408  and  _411
REMARK  177  A    between atoms: _411  and  _412
REMARK  178  A    between atoms: _415  and  _417
REMARK  179  A    between atoms: _417  and  _418
REMARK  180  A    between atoms: _417  and  _420
REMARK  181  A    between atoms: _420  and  _421
REMARK  182  A    between atoms: _424  and  _426
REMARK  183  A    between atoms: _426  and  _427
REMARK  184  A    between atoms: _426  and  _429
REMARK  185  A    between atoms: _429  and  _430
REMARK  186  A    between atoms: _433  and  _435
REMARK  187  A    between atoms: _435  and  _436
REMARK  188  A    between atoms: _435  and  _438
REMARK  189  A    between atoms: _438  and  _439
REMARK  190  A    between atoms: _439  and  _440
REMARK  191  A    between atoms: _440  and  _441
REMARK  192  A    between atoms: _441  and  _442
REMARK  193  A    between atoms: _446  and  _448
REMARK  194  A    between atoms: _448  and  _449
REMARK  195  A    between atoms: _448  and  _451
REMARK  196  A    between atoms: _451  and  _452
REMARK  197  A    between atoms: _455  and  _457
REMARK  198  A    between atoms: _457  and  _458
REMARK  199  A    between atoms: _461  and  _463
REMARK  200  A    between atoms: _463  and  _464
REMARK  201  A    between atoms: _463  and  _466
REMARK  202  A    between atoms: _466  and  _467
REMARK  203  A    between atoms: _470  and  _472
REMARK  204  A    between atoms: _472  and  _473
REMARK  205  A    between atoms: _472  and  _475
REMARK  206  A    between atoms: _475  and  _476
REMARK  207  A    between atoms: _482  and  _484
REMARK  208  A    between atoms: _484  and  _485
REMARK  209  A    between atoms: _484  and  _487
REMARK  210  A    between atoms: _487  and  _488
REMARK  211  A    between atoms: _491  and  _493
REMARK  212  A    between atoms: _493  and  _494
REMARK  213  A    between atoms: _493  and  _496
REMARK  214  A    between atoms: _496  and  _497
REMARK  215  A    between atoms: _500  and  _502
REMARK  216  A    between atoms: _502  and  _503
REMARK  217  A    between atoms: _502  and  _505
REMARK  218  A    between atoms: _505  and  _506
REMARK                            x       y       z     vdW  Elec       q    Type
REMARK                         _______ _______ _______ _____ _____    ______ ____
ROOT
ATOM      1  CA  LEU A   1      13.114   8.196  32.963  0.00  0.00    +0.172 C 
ENDROOT
BRANCH   1   2
ATOM      2  C   LEU A   1      13.392   8.912  34.281  0.00  0.00    +0.380 C 
ATOM      3  OXT LEU A   1      14.371   8.518  34.950  0.00  0.00    -0.244 OA
ATOM      4  O   LEU A   1      12.644   9.851  34.629  0.00  0.00    -0.244 OA
ENDBRANCH   1   2
BRANCH   1   5
ATOM      5  N   LEU A   1      14.355   8.143  32.216  0.00  0.00    -0.236 NA
ATOM      6  H   LEU A   1      15.027   7.376  32.422  0.00  0.00    +0.142 HD
ENDBRANCH   1   5
BRANCH   1   7
ATOM      7  CB  LEU A   1      12.622   6.772  33.218  0.00  0.00    +0.029 C 
BRANCH   7   8
ATOM      8  CG  LEU A   1      12.541   5.909  31.954  0.00  0.00    +0.002 C 
ATOM      9  CD2 LEU A   1      12.242   4.472  32.327  0.00  0.00    +0.000 C 
ATOM     10  CD1 LEU A   1      11.473   6.454  31.022  0.00  0.00    +0.000 C 
ENDBRANCH   7   8
ENDBRANCH   1   7
TORSDOF 4
REMARK  Name = ../refined-set-2016/1pxn/1pxn_pocket.pdb
REMARK  218 active torsions:
REMARK  status: ('A' for Active; 'I' for Inactive)
REMARK    1  A    between atoms: _1  and  _3
REMARK    2  A    between atoms: _3  and  _4
REMARK    3  A    between atoms: _3  and  _6
REMARK    4  A    between atoms: _6  and  _7
REMARK    5  A    between atoms: _7  and  _8
REMARK    6  A    between atoms: _11  and  _13
REMARK    7  A    between atoms: _13  and  _14
REMARK    8  A    between atoms: _13  and  _16
REMARK    9  A    between atoms: _16  and  _17
REMARK   10  A    between atoms: _17  and  _18
REMARK   11  A    between atoms: _18  and  _19
REMARK   12  A    between atoms: _19  and  _20
REMARK   13  A    between atoms: _24  and  _26
REMARK   14  A    between atoms: _26  and  _27
REMARK   15  A    between atoms: _26  and  _29
REMARK   16  A    between atoms: _29  and  _30
REMARK   17  A    between atoms: _33  and  _35
REMARK   18  A    between atoms: _35  and  _36
REMARK   19  A    between atoms: _38  and  _40
REMARK   20  A    between atoms: _40  and  _41
REMARK   21  A    between atoms: _40  and  _43
REMARK   22  A    between atoms: _43  and  _44
REMARK   23  A    between atoms: _44  and  _45
REMARK   24  A    between atoms: _48  and  _50
REMARK   25  A    between atoms: _50  and  _51
REMARK   26  A    between atoms: _53  and  _55
REMARK   27  A    between atoms: _55  and  _56
REMARK   28  A    between atoms: _55  and  _58
REMARK   29  A    between atoms: _58  and  _59
REMARK   30  A    between atoms: _62  and  _64
REMARK   31  A    between atoms: _64  and  _65
REMARK   32  A    between atoms: _64  and  _67
REMARK   33  A    between atoms: _67  and  _68
REMARK   34  A    between atoms: _73  and  _74
REMARK   35  A    between atoms: _76  and  _78
REMARK   36  A    between atoms: _78  and  _79
REMARK   37  A    between atoms: _81  and  _83
REMARK   38  A    between atoms: _83  and  _84
REMARK   39  A    between atoms: _83  and  _86
REMARK   40  A    between atoms: _89  and  _91
REMARK   41  A    between atoms: _91  and  _92
REMARK   42  A    between atoms: _91  and  _94
REMARK   43  A    between atoms: _97  and  _99
REMARK   44  A    between atoms: _99  and  _100
REMARK   45  A    between atoms: _99  and  _102
REMARK   46  A    between atoms: _102  and  _103
REMARK   47  A    between atoms: _108  and  _109
REMARK   48  A    between atoms: _111  and  _113
REMARK   49  A    between atoms: _113  and  _114
REMARK   50  A    between atoms: _113  and  _116
REMARK   51  A    between atoms: _116  and  _117
REMARK   52  A    between atoms: _117  and  _118
REMARK   53  A    between atoms: _118  and  _119
REMARK   54  A    between atoms: _119  and  _120
REMARK   55  A    between atoms: _124  and  _126
REMARK   56  A    between atoms: _126  and  _127
REMARK   57  A    between atoms: _130  and  _132
REMARK   58  A    between atoms: _132  and  _133
REMARK   59  A    between atoms: _132  and  _135
REMARK   60  A    between atoms: _138  and  _140
REMARK   61  A    between atoms: _140  and  _141
REMARK   62  A    between atoms: _140  and  _143
REMARK   63  A    between atoms: _146  and  _148
REMARK   64  A    between atoms: _148  and  _149
REMARK   65  A    between atoms: _152  and  _154
REMARK   66  A    between atoms: _154  and  _155
REMARK   67  A    between atoms: _154  and  _157
REMARK   68  A    between atoms: _157  and  _158
REMARK   69  A    between atoms: _161  and  _163
REMARK   70  A    between atoms: _163  and  _164
REMARK   71  A    between atoms: _163  and  _166
REMARK   72  A    between atoms: _166  and  _167
REMARK   73  A    between atoms: _167  and  _168
REMARK   74  A    between atoms: _168  and  _169
REMARK   75  A    between atoms: _169  and  _170
REMARK   76  A    between atoms: _174  and  _176
REMARK   77  A    between atoms: _176  and  _177
REMARK   78  A    between atoms: _176  and  _179
REMARK   79  A    between atoms: _182  and  _184
REMARK   80  A    between atoms: _184  and  _185
REMARK   81  A    between atoms: _184  and  _187
REMARK   82  A    between atoms: _187  and  _188
REMARK   83  A    between atoms: _188  and  _189
REMARK   84  A    between atoms: _189  and  _190
REMARK   85  A    between atoms: _190  and  _191
REMARK   86  A    between atoms: _195  and  _197
REMARK   87  A    between atoms: _197  and  _198
REMARK   88  A    between atoms: _197  and  _200
REMARK   89  A    between atoms: _200  and  _201
REMARK   90  A    between atoms: _204  and  _206
REMARK   91  A    between atoms: _206  and  _207
REMARK   92  A    between atoms: _206  and  _209
REMARK   93  A    between atoms: _209  and  _210
REMARK   94  A    between atoms: _213  and  _215
REMARK   95  A    between atoms: _215  and  _216
REMARK   96  A    between atoms: _215  and  _218
REMARK   97  A    between atoms: _218  and  _219
REMARK   98  A    between atoms: _222  and  _224
REMARK   99  A    between atoms: _224  and  _225
REMARK  100  A    between atoms: _224  and  _227
REMARK  101  A    between atoms: _230  and  _232
REMARK  102  A    between atoms: _232  and  _233
REMARK  103  A    between atoms: _232  and  _235
REMARK  104  A    between atoms: _235  and  _236
REMARK  105  A    between atoms: _242  and  _244
REMARK  106  A    between atoms: _244  and  _245
REMARK  107  A    between atoms: _244  and  _247
REMARK  108  A    between atoms: _247  and  _248
REMARK  109  A    between atoms: _248  and  _249
REMARK  110  A    between atoms: _252  and  _254
REMARK  111  A    between atoms: _254  and  _255
REMARK  112  A    between atoms: _254  and  _257
REMARK  113  A    between atoms: _257  and  _258
REMARK  114  A    between atoms: _264  and  _266
REMARK  115  A    between atoms: _266  and  _267
REMARK  116  A    between atoms: _266  and  _269
REMARK  117  A    between atoms: _269  and  _270
REMARK  118  A    between atoms: _273  and  _275
REMARK  119  A    between atoms: _275  and  _276
REMARK  120  A    between atoms: _275  and  _278
REMARK  121  A    between atoms: _278  and  _279
REMARK  122  A    between atoms: _284  and  _286
REMARK  123  A    between atoms: _286  and  _287
REMARK  124  A    between atoms: _286  and  _289
REMARK  125  A    between atoms: _289  and  _290
REMARK  126  A    between atoms: _290  and  _291
REMARK  127  A    between atoms: _296  and  _298
REMARK  128  A    between atoms: _298  and  _299
REMARK  129  A    between atoms: _298  and  _301
REMARK  130  A    between atoms: _301  and  _302
REMARK  131  A    between atoms: _305  and  _307
REMARK  132  A    between atoms: _307  and  _308
REMARK  133  A    between atoms: _307  and  _310
REMARK  134  A    between atoms: _310  and  _311
REMARK  135  A    between atoms: _314  and  _316
REMARK  136  A    between atoms: _316  and  _317
REMARK  137  A    between atoms: _316  and  _319
REMARK  138  A    between atoms: _319  and  _320
REMARK  139  A    between atoms: _320  and  _321
REMARK  140  A    between atoms: _321  and  _322
REMARK  141  A    between atoms: _322  and  _323
REMARK  142  A    between atoms: _327  and  _329
REMARK  143  A    between atoms: _329  and  _330
REMARK  144  A    between atoms: _329  and  _332
REMARK  145  A    between atoms: _332  and  _333
REMARK  146  A    between atoms: _333  and  _334
REMARK  147  A    between atoms: _334  and  _335
REMARK  148  A    between atoms: _335  and  _336
REMARK  149  A    between atoms: _340  and  _342
REMARK  150  A    between atoms: _342  and  _343
REMARK  151  A    between atoms: _342  and  _345
REMARK  152  A    between atoms: _345  and  _346
REMARK  153  A    between atoms: _352  and  _354
REMARK  154  A    between atoms: _354  and  _355
REMARK  155  A    between atoms: _354  and  _357
REMARK  156  A    between atoms: _357  and  _358
REMARK  157  A    between atoms: _363  and  _365
REMARK  158  A    between atoms: _365  and  _366
REMARK  159  A    between atoms: _365  and  _368
REMARK  160  A    between atoms: _368  and  _369
REMARK  161  A    between atoms: _369  and  _370
REMARK  162  A    between atoms: _370  and  _371
REMARK  163  A    between atoms: _371  and  _372
REMARK  164  A    between atoms: _377  and  _378
REMARK  165  A    between atoms: _383  and  _385
REMARK  166  A    between atoms: _385  and  _386
REMARK  167  A    between atoms: _385  and  _388
REMARK  168  A    between atoms: _388  and  _389
REMARK  169  A    between atoms: _389  and  _390
REMARK  170  A    between atoms: _395  and  _397
REMARK  171  A    between atoms: _397  and  _398
REMARK  172  A    between atoms: _397  and  _400
REMARK  173  A    between atoms: _400  and  _401
REMARK  174  A    between atoms: _406  and  _408
REMARK  175  A    between atoms: _408  and  _409
REMARK  176  A    between atoms: _408  and  _411
REMARK  177  A    between atoms: _411  and  _412
REMARK  178  A    between atoms: _415  and  _417
REMARK  179  A    between atoms: _417  and  _418
REMARK  180  A    between atoms: _417  and  _420
REMARK  181  A    between atoms: _420  and  _421
REMARK  182  A    between atoms: _424  and  _426
REMARK  183  A    between atoms: _426  and  _427
REMARK  184  A    between atoms: _426  and  _429
REMARK  185  A    between atoms: _429  and  _430
REMARK  186  A    between atoms: _433  and  _435
REMARK  187  A    between atoms: _435  and  _436
REMARK  188  A    between atoms: _435  and  _438
REMARK  189  A    between atoms: _438  and  _439
REMARK  190  A    between atoms: _439  and  _440
REMARK  191  A    between atoms: _440  and  _441
REMARK  192  A    between atoms: _441  and  _442
REMARK  193  A    between atoms: _446  and  _448
REMARK  194  A    between atoms: _448  and  _449
REMARK  195  A    between atoms: _448  and  _451
REMARK  196  A    between atoms: _451  and  _452
REMARK  197  A    between atoms: _455  and  _457
REMARK  198  A    between atoms: _457  and  _458
REMARK  199  A    between atoms: _461  and  _463
REMARK  200  A    between atoms: _463  and  _464
REMARK  201  A    between atoms: _463  and  _466
REMARK  202  A    between atoms: _466  and  _467
REMARK  203  A    between atoms: _470  and  _472
REMARK  204  A    between atoms: _472  and  _473
REMARK  205  A    between atoms: _472  and  _475
REMARK  206  A    between atoms: _475  and  _476
REMARK  207  A    between atoms: _482  and  _484
REMARK  208  A    between atoms: _484  and  _485
REMARK  209  A    between atoms: _484  and  _487
REMARK  210  A    between atoms: _487  and  _488
REMARK  211  A    between atoms: _491  and  _493
REMARK  212  A    between atoms: _493  and  _494
REMARK  213  A    between atoms: _493  and  _496
REMARK  214  A    between atoms: _496  and  _497
REMARK  215  A    between atoms: _500  and  _502
REMARK  216  A    between atoms: _502  and  _503
REMARK  217  A    between atoms: _502  and  _505
REMARK  218  A    between atoms: _505  and  _506
REMARK                            x       y       z     vdW  Elec       q    Type
REMARK                         _______ _______ _______ _____ _____    ______ ____
ROOT
ATOM      1  O   HOH     1       0.315  -1.695  33.324  0.00  0.00    +0.000 OA
ENDROOT
TORSDOF 0
REMARK  Name = ../refined-set-2016/1pxn/1pxn_pocket.pdb
REMARK  218 active torsions:
REMARK  status: ('A' for Active; 'I' for Inactive)
REMARK    1  A    between atoms: _1  and  _3
REMARK    2  A    between atoms: _3  and  _4
REMARK    3  A    between atoms: _3  and  _6
REMARK    4  A    between atoms: _6  and  _7
REMARK    5  A    between atoms: _7  and  _8
REMARK    6  A    between atoms: _11  and  _13
REMARK    7  A    between atoms: _13  and  _14
REMARK    8  A    between atoms: _13  and  _16
REMARK    9  A    between atoms: _16  and  _17
REMARK   10  A    between atoms: _17  and  _18
REMARK   11  A    between atoms: _18  and  _19
REMARK   12  A    between atoms: _19  and  _20
REMARK   13  A    between atoms: _24  and  _26
REMARK   14  A    between atoms: _26  and  _27
REMARK   15  A    between atoms: _26  and  _29
REMARK   16  A    between atoms: _29  and  _30
REMARK   17  A    between atoms: _33  and  _35
REMARK   18  A    between atoms: _35  and  _36
REMARK   19  A    between atoms: _38  and  _40
REMARK   20  A    between atoms: _40  and  _41
REMARK   21  A    between atoms: _40  and  _43
REMARK   22  A    between atoms: _43  and  _44
REMARK   23  A    between atoms: _44  and  _45
REMARK   24  A    between atoms: _48  and  _50
REMARK   25  A    between atoms: _50  and  _51
REMARK   26  A    between atoms: _53  and  _55
REMARK   27  A    between atoms: _55  and  _56
REMARK   28  A    between atoms: _55  and  _58
REMARK   29  A    between atoms: _58  and  _59
REMARK   30  A    between atoms: _62  and  _64
REMARK   31  A    between atoms: _64  and  _65
REMARK   32  A    between atoms: _64  and  _67
REMARK   33  A    between atoms: _67  and  _68
REMARK   34  A    between atoms: _73  and  _74
REMARK   35  A    between atoms: _76  and  _78
REMARK   36  A    between atoms: _78  and  _79
REMARK   37  A    between atoms: _81  and  _83
REMARK   38  A    between atoms: _83  and  _84
REMARK   39  A    between atoms: _83  and  _86
REMARK   40  A    between atoms: _89  and  _91
REMARK   41  A    between atoms: _91  and  _92
REMARK   42  A    between atoms: _91  and  _94
REMARK   43  A    between atoms: _97  and  _99
REMARK   44  A    between atoms: _99  and  _100
REMARK   45  A    between atoms: _99  and  _102
REMARK   46  A    between atoms: _102  and  _103
REMARK   47  A    between atoms: _108  and  _109
REMARK   48  A    between atoms: _111  and  _113
REMARK   49  A    between atoms: _113  and  _114
REMARK   50  A    between atoms: _113  and  _116
REMARK   51  A    between atoms: _116  and  _117
REMARK   52  A    between atoms: _117  and  _118
REMARK   53  A    between atoms: _118  and  _119
REMARK   54  A    between atoms: _119  and  _120
REMARK   55  A    between atoms: _124  and  _126
REMARK   56  A    between atoms: _126  and  _127
REMARK   57  A    between atoms: _130  and  _132
REMARK   58  A    between atoms: _132  and  _133
REMARK   59  A    between atoms: _132  and  _135
REMARK   60  A    between atoms: _138  and  _140
REMARK   61  A    between atoms: _140  and  _141
REMARK   62  A    between atoms: _140  and  _143
REMARK   63  A    between atoms: _146  and  _148
REMARK   64  A    between atoms: _148  and  _149
REMARK   65  A    between atoms: _152  and  _154
REMARK   66  A    between atoms: _154  and  _155
REMARK   67  A    between atoms: _154  and  _157
REMARK   68  A    between atoms: _157  and  _158
REMARK   69  A    between atoms: _161  and  _163
REMARK   70  A    between atoms: _163  and  _164
REMARK   71  A    between atoms: _163  and  _166
REMARK   72  A    between atoms: _166  and  _167
REMARK   73  A    between atoms: _167  and  _168
REMARK   74  A    between atoms: _168  and  _169
REMARK   75  A    between atoms: _169  and  _170
REMARK   76  A    between atoms: _174  and  _176
REMARK   77  A    between atoms: _176  and  _177
REMARK   78  A    between atoms: _176  and  _179
REMARK   79  A    between atoms: _182  and  _184
REMARK   80  A    between atoms: _184  and  _185
REMARK   81  A    between atoms: _184  and  _187
REMARK   82  A    between atoms: _187  and  _188
REMARK   83  A    between atoms: _188  and  _189
REMARK   84  A    between atoms: _189  and  _190
REMARK   85  A    between atoms: _190  and  _191
REMARK   86  A    between atoms: _195  and  _197
REMARK   87  A    between atoms: _197  and  _198
REMARK   88  A    between atoms: _197  and  _200
REMARK   89  A    between atoms: _200  and  _201
REMARK   90  A    between atoms: _204  and  _206
REMARK   91  A    between atoms: _206  and  _207
REMARK   92  A    between atoms: _206  and  _209
REMARK   93  A    between atoms: _209  and  _210
REMARK   94  A    between atoms: _213  and  _215
REMARK   95  A    between atoms: _215  and  _216
REMARK   96  A    between atoms: _215  and  _218
REMARK   97  A    between atoms: _218  and  _219
REMARK   98  A    between atoms: _222  and  _224
REMARK   99  A    between atoms: _224  and  _225
REMARK  100  A    between atoms: _224  and  _227
REMARK  101  A    between atoms: _230  and  _232
REMARK  102  A    between atoms: _232  and  _233
REMARK  103  A    between atoms: _232  and  _235
REMARK  104  A    between atoms: _235  and  _236
REMARK  105  A    between atoms: _242  and  _244
REMARK  106  A    between atoms: _244  and  _245
REMARK  107  A    between atoms: _244  and  _247
REMARK  108  A    between atoms: _247  and  _248
REMARK  109  A    between atoms: _248  and  _249
REMARK  110  A    between atoms: _252  and  _254
REMARK  111  A    between atoms: _254  and  _255
REMARK  112  A    between atoms: _254  and  _257
REMARK  113  A    between atoms: _257  and  _258
REMARK  114  A    between atoms: _264  and  _266
REMARK  115  A    between atoms: _266  and  _267
REMARK  116  A    between atoms: _266  and  _269
REMARK  117  A    between atoms: _269  and  _270
REMARK  118  A    between atoms: _273  and  _275
REMARK  119  A    between atoms: _275  and  _276
REMARK  120  A    between atoms: _275  and  _278
REMARK  121  A    between atoms: _278  and  _279
REMARK  122  A    between atoms: _284  and  _286
REMARK  123  A    between atoms: _286  and  _287
REMARK  124  A    between atoms: _286  and  _289
REMARK  125  A    between atoms: _289  and  _290
REMARK  126  A    between atoms: _290  and  _291
REMARK  127  A    between atoms: _296  and  _298
REMARK  128  A    between atoms: _298  and  _299
REMARK  129  A    between atoms: _298  and  _301
REMARK  130  A    between atoms: _301  and  _302
REMARK  131  A    between atoms: _305  and  _307
REMARK  132  A    between atoms: _307  and  _308
REMARK  133  A    between atoms: _307  and  _310
REMARK  134  A    between atoms: _310  and  _311
REMARK  135  A    between atoms: _314  and  _316
REMARK  136  A    between atoms: _316  and  _317
REMARK  137  A    between atoms: _316  and  _319
REMARK  138  A    between atoms: _319  and  _320
REMARK  139  A    between atoms: _320  and  _321
REMARK  140  A    between atoms: _321  and  _322
REMARK  141  A    between atoms: _322  and  _323
REMARK  142  A    between atoms: _327  and  _329
REMARK  143  A    between atoms: _329  and  _330
REMARK  144  A    between atoms: _329  and  _332
REMARK  145  A    between atoms: _332  and  _333
REMARK  146  A    between atoms: _333  and  _334
REMARK  147  A    between atoms: _334  and  _335
REMARK  148  A    between atoms: _335  and  _336
REMARK  149  A    between atoms: _340  and  _342
REMARK  150  A    between atoms: _342  and  _343
REMARK  151  A    between atoms: _342  and  _345
REMARK  152  A    between atoms: _345  and  _346
REMARK  153  A    between atoms: _352  and  _354
REMARK  154  A    between atoms: _354  and  _355
REMARK  155  A    between atoms: _354  and  _357
REMARK  156  A    between atoms: _357  and  _358
REMARK  157  A    between atoms: _363  and  _365
REMARK  158  A    between atoms: _365  and  _366
REMARK  159  A    between atoms: _365  and  _368
REMARK  160  A    between atoms: _368  and  _369
REMARK  161  A    between atoms: _369  and  _370
REMARK  162  A    between atoms: _370  and  _371
REMARK  163  A    between atoms: _371  and  _372
REMARK  164  A    between atoms: _377  and  _378
REMARK  165  A    between atoms: _383  and  _385
REMARK  166  A    between atoms: _385  and  _386
REMARK  167  A    between atoms: _385  and  _388
REMARK  168  A    between atoms: _388  and  _389
REMARK  169  A    between atoms: _389  and  _390
REMARK  170  A    between atoms: _395  and  _397
REMARK  171  A    between atoms: _397  and  _398
REMARK  172  A    between atoms: _397  and  _400
REMARK  173  A    between atoms: _400  and  _401
REMARK  174  A    between atoms: _406  and  _408
REMARK  175  A    between atoms: _408  and  _409
REMARK  176  A    between atoms: _408  and  _411
REMARK  177  A    between atoms: _411  and  _412
REMARK  178  A    between atoms: _415  and  _417
REMARK  179  A    between atoms: _417  and  _418
REMARK  180  A    between atoms: _417  and  _420
REMARK  181  A    between atoms: _420  and  _421
REMARK  182  A    between atoms: _424  and  _426
REMARK  183  A    between atoms: _426  and  _427
REMARK  184  A    between atoms: _426  and  _429
REMARK  185  A    between atoms: _429  and  _430
REMARK  186  A    between atoms: _433  and  _435
REMARK  187  A    between atoms: _435  and  _436
REMARK  188  A    between atoms: _435  and  _438
REMARK  189  A    between atoms: _438  and  _439
REMARK  190  A    between atoms: _439  and  _440
REMARK  191  A    between atoms: _440  and  _441
REMARK  192  A    between atoms: _441  and  _442
REMARK  193  A    between atoms: _446  and  _448
REMARK  194  A    between atoms: _448  and  _449
REMARK  195  A    between atoms: _448  and  _451
REMARK  196  A    between atoms: _451  and  _452
REMARK  197  A    between atoms: _455  and  _457
REMARK  198  A    between atoms: _457  and  _458
REMARK  199  A    between atoms: _461  and  _463
REMARK  200  A    between atoms: _463  and  _464
REMARK  201  A    between atoms: _463  and  _466
REMARK  202  A    between atoms: _466  and  _467
REMARK  203  A    between atoms: _470  and  _472
REMARK  204  A    between atoms: _472  and  _473
REMARK  205  A    between atoms: _472  and  _475
REMARK  206  A    between atoms: _475  and  _476
REMARK  207  A    between atoms: _482  and  _484
REMARK  208  A    between atoms: _484  and  _485
REMARK  209  A    between atoms: _484  and  _487
REMARK  210  A    between atoms: _487  and  _488
REMARK  211  A    between atoms: _491  and  _493
REMARK  212  A    between atoms: _493  and  _494
REMARK  213  A    between atoms: _493  and  _496
REMARK  214  A    between atoms: _496  and  _497
REMARK  215  A    between atoms: _500  and  _502
REMARK  216  A    between atoms: _502  and  _503
REMARK  217  A    between atoms: _502  and  _505
REMARK  218  A    between atoms: _505  and  _506
REMARK                            x       y       z     vdW  Elec       q    Type
REMARK                         _______ _______ _______ _____ _____    ______ ____
ROOT
ATOM      1  O   HOH     1      -2.655  16.236  18.852  0.00  0.00    +0.000 OA
ENDROOT
TORSDOF 0
REMARK  Name = ../refined-set-2016/1pxn/1pxn_pocket.pdb
REMARK  218 active torsions:
REMARK  status: ('A' for Active; 'I' for Inactive)
REMARK    1  A    between atoms: _1  and  _3
REMARK    2  A    between atoms: _3  and  _4
REMARK    3  A    between atoms: _3  and  _6
REMARK    4  A    between atoms: _6  and  _7
REMARK    5  A    between atoms: _7  and  _8
REMARK    6  A    between atoms: _11  and  _13
REMARK    7  A    between atoms: _13  and  _14
REMARK    8  A    between atoms: _13  and  _16
REMARK    9  A    between atoms: _16  and  _17
REMARK   10  A    between atoms: _17  and  _18
REMARK   11  A    between atoms: _18  and  _19
REMARK   12  A    between atoms: _19  and  _20
REMARK   13  A    between atoms: _24  and  _26
REMARK   14  A    between atoms: _26  and  _27
REMARK   15  A    between atoms: _26  and  _29
REMARK   16  A    between atoms: _29  and  _30
REMARK   17  A    between atoms: _33  and  _35
REMARK   18  A    between atoms: _35  and  _36
REMARK   19  A    between atoms: _38  and  _40
REMARK   20  A    between atoms: _40  and  _41
REMARK   21  A    between atoms: _40  and  _43
REMARK   22  A    between atoms: _43  and  _44
REMARK   23  A    between atoms: _44  and  _45
REMARK   24  A    between atoms: _48  and  _50
REMARK   25  A    between atoms: _50  and  _51
REMARK   26  A    between atoms: _53  and  _55
REMARK   27  A    between atoms: _55  and  _56
REMARK   28  A    between atoms: _55  and  _58
REMARK   29  A    between atoms: _58  and  _59
REMARK   30  A    between atoms: _62  and  _64
REMARK   31  A    between atoms: _64  and  _65
REMARK   32  A    between atoms: _64  and  _67
REMARK   33  A    between atoms: _67  and  _68
REMARK   34  A    between atoms: _73  and  _74
REMARK   35  A    between atoms: _76  and  _78
REMARK   36  A    between atoms: _78  and  _79
REMARK   37  A    between atoms: _81  and  _83
REMARK   38  A    between atoms: _83  and  _84
REMARK   39  A    between atoms: _83  and  _86
REMARK   40  A    between atoms: _89  and  _91
REMARK   41  A    between atoms: _91  and  _92
REMARK   42  A    between atoms: _91  and  _94
REMARK   43  A    between atoms: _97  and  _99
REMARK   44  A    between atoms: _99  and  _100
REMARK   45  A    between atoms: _99  and  _102
REMARK   46  A    between atoms: _102  and  _103
REMARK   47  A    between atoms: _108  and  _109
REMARK   48  A    between atoms: _111  and  _113
REMARK   49  A    between atoms: _113  and  _114
REMARK   50  A    between atoms: _113  and  _116
REMARK   51  A    between atoms: _116  and  _117
REMARK   52  A    between atoms: _117  and  _118
REMARK   53  A    between atoms: _118  and  _119
REMARK   54  A    between atoms: _119  and  _120
REMARK   55  A    between atoms: _124  and  _126
REMARK   56  A    between atoms: _126  and  _127
REMARK   57  A    between atoms: _130  and  _132
REMARK   58  A    between atoms: _132  and  _133
REMARK   59  A    between atoms: _132  and  _135
REMARK   60  A    between atoms: _138  and  _140
REMARK   61  A    between atoms: _140  and  _141
REMARK   62  A    between atoms: _140  and  _143
REMARK   63  A    between atoms: _146  and  _148
REMARK   64  A    between atoms: _148  and  _149
REMARK   65  A    between atoms: _152  and  _154
REMARK   66  A    between atoms: _154  and  _155
REMARK   67  A    between atoms: _154  and  _157
REMARK   68  A    between atoms: _157  and  _158
REMARK   69  A    between atoms: _161  and  _163
REMARK   70  A    between atoms: _163  and  _164
REMARK   71  A    between atoms: _163  and  _166
REMARK   72  A    between atoms: _166  and  _167
REMARK   73  A    between atoms: _167  and  _168
REMARK   74  A    between atoms: _168  and  _169
REMARK   75  A    between atoms: _169  and  _170
REMARK   76  A    between atoms: _174  and  _176
REMARK   77  A    between atoms: _176  and  _177
REMARK   78  A    between atoms: _176  and  _179
REMARK   79  A    between atoms: _182  and  _184
REMARK   80  A    between atoms: _184  and  _185
REMARK   81  A    between atoms: _184  and  _187
REMARK   82  A    between atoms: _187  and  _188
REMARK   83  A    between atoms: _188  and  _189
REMARK   84  A    between atoms: _189  and  _190
REMARK   85  A    between atoms: _190  and  _191
REMARK   86  A    between atoms: _195  and  _197
REMARK   87  A    between atoms: _197  and  _198
REMARK   88  A    between atoms: _197  and  _200
REMARK   89  A    between atoms: _200  and  _201
REMARK   90  A    between atoms: _204  and  _206
REMARK   91  A    between atoms: _206  and  _207
REMARK   92  A    between atoms: _206  and  _209
REMARK   93  A    between atoms: _209  and  _210
REMARK   94  A    between atoms: _213  and  _215
REMARK   95  A    between atoms: _215  and  _216
REMARK   96  A    between atoms: _215  and  _218
REMARK   97  A    between atoms: _218  and  _219
REMARK   98  A    between atoms: _222  and  _224
REMARK   99  A    between atoms: _224  and  _225
REMARK  100  A    between atoms: _224  and  _227
REMARK  101  A    between atoms: _230  and  _232
REMARK  102  A    between atoms: _232  and  _233
REMARK  103  A    between atoms: _232  and  _235
REMARK  104  A    between atoms: _235  and  _236
REMARK  105  A    between atoms: _242  and  _244
REMARK  106  A    between atoms: _244  and  _245
REMARK  107  A    between atoms: _244  and  _247
REMARK  108  A    between atoms: _247  and  _248
REMARK  109  A    between atoms: _248  and  _249
REMARK  110  A    between atoms: _252  and  _254
REMARK  111  A    between atoms: _254  and  _255
REMARK  112  A    between atoms: _254  and  _257
REMARK  113  A    between atoms: _257  and  _258
REMARK  114  A    between atoms: _264  and  _266
REMARK  115  A    between atoms: _266  and  _267
REMARK  116  A    between atoms: _266  and  _269
REMARK  117  A    between atoms: _269  and  _270
REMARK  118  A    between atoms: _273  and  _275
REMARK  119  A    between atoms: _275  and  _276
REMARK  120  A    between atoms: _275  and  _278
REMARK  121  A    between atoms: _278  and  _279
REMARK  122  A    between atoms: _284  and  _286
REMARK  123  A    between atoms: _286  and  _287
REMARK  124  A    between atoms: _286  and  _289
REMARK  125  A    between atoms: _289  and  _290
REMARK  126  A    between atoms: _290  and  _291
REMARK  127  A    between atoms: _296  and  _298
REMARK  128  A    between atoms: _298  and  _299
REMARK  129  A    between atoms: _298  and  _301
REMARK  130  A    between atoms: _301  and  _302
REMARK  131  A    between atoms: _305  and  _307
REMARK  132  A    between atoms: _307  and  _308
REMARK  133  A    between atoms: _307  and  _310
REMARK  134  A    between atoms: _310  and  _311
REMARK  135  A    between atoms: _314  and  _316
REMARK  136  A    between atoms: _316  and  _317
REMARK  137  A    between atoms: _316  and  _319
REMARK  138  A    between atoms: _319  and  _320
REMARK  139  A    between atoms: _320  and  _321
REMARK  140  A    between atoms: _321  and  _322
REMARK  141  A    between atoms: _322  and  _323
REMARK  142  A    between atoms: _327  and  _329
REMARK  143  A    between atoms: _329  and  _330
REMARK  144  A    between atoms: _329  and  _332
REMARK  145  A    between atoms: _332  and  _333
REMARK  146  A    between atoms: _333  and  _334
REMARK  147  A    between atoms: _334  and  _335
REMARK  148  A    between atoms: _335  and  _336
REMARK  149  A    between atoms: _340  and  _342
REMARK  150  A    between atoms: _342  and  _343
REMARK  151  A    between atoms: _342  and  _345
REMARK  152  A    between atoms: _345  and  _346
REMARK  153  A    between atoms: _352  and  _354
REMARK  154  A    between atoms: _354  and  _355
REMARK  155  A    between atoms: _354  and  _357
REMARK  156  A    between atoms: _357  and  _358
REMARK  157  A    between atoms: _363  and  _365
REMARK  158  A    between atoms: _365  and  _366
REMARK  159  A    between atoms: _365  and  _368
REMARK  160  A    between atoms: _368  and  _369
REMARK  161  A    between atoms: _369  and  _370
REMARK  162  A    between atoms: _370  and  _371
REMARK  163  A    between atoms: _371  and  _372
REMARK  164  A    between atoms: _377  and  _378
REMARK  165  A    between atoms: _383  and  _385
REMARK  166  A    between atoms: _385  and  _386
REMARK  167  A    between atoms: _385  and  _388
REMARK  168  A    between atoms: _388  and  _389
REMARK  169  A    between atoms: _389  and  _390
REMARK  170  A    between atoms: _395  and  _397
REMARK  171  A    between atoms: _397  and  _398
REMARK  172  A    between atoms: _397  and  _400
REMARK  173  A    between atoms: _400  and  _401
REMARK  174  A    between atoms: _406  and  _408
REMARK  175  A    between atoms: _408  and  _409
REMARK  176  A    between atoms: _408  and  _411
REMARK  177  A    between atoms: _411  and  _412
REMARK  178  A    between atoms: _415  and  _417
REMARK  179  A    between atoms: _417  and  _418
REMARK  180  A    between atoms: _417  and  _420
REMARK  181  A    between atoms: _420  and  _421
REMARK  182  A    between atoms: _424  and  _426
REMARK  183  A    between atoms: _426  and  _427
REMARK  184  A    between atoms: _426  and  _429
REMARK  185  A    between atoms: _429  and  _430
REMARK  186  A    between atoms: _433  and  _435
REMARK  187  A    between atoms: _435  and  _436
REMARK  188  A    between atoms: _435  and  _438
REMARK  189  A    between atoms: _438  and  _439
REMARK  190  A    between atoms: _439  and  _440
REMARK  191  A    between atoms: _440  and  _441
REMARK  192  A    between atoms: _441  and  _442
REMARK  193  A    between atoms: _446  and  _448
REMARK  194  A    between atoms: _448  and  _449
REMARK  195  A    between atoms: _448  and  _451
REMARK  196  A    between atoms: _451  and  _452
REMARK  197  A    between atoms: _455  and  _457
REMARK  198  A    between atoms: _457  and  _458
REMARK  199  A    between atoms: _461  and  _463
REMARK  200  A    between atoms: _463  and  _464
REMARK  201  A    between atoms: _463  and  _466
REMARK  202  A    between atoms: _466  and  _467
REMARK  203  A    between atoms: _470  and  _472
REMARK  204  A    between atoms: _472  and  _473
REMARK  205  A    between atoms: _472  and  _475
REMARK  206  A    between atoms: _475  and  _476
REMARK  207  A    between atoms: _482  and  _484
REMARK  208  A    between atoms: _484  and  _485
REMARK  209  A    between atoms: _484  and  _487
REMARK  210  A    between atoms: _487  and  _488
REMARK  211  A    between atoms: _491  and  _493
REMARK  212  A    between atoms: _493  and  _494
REMARK  213  A    between atoms: _493  and  _496
REMARK  214  A    between atoms: _496  and  _497
REMARK  215  A    between atoms: _500  and  _502
REMARK  216  A    between atoms: _502  and  _503
REMARK  217  A    between atoms: _502  and  _505
REMARK  218  A    between atoms: _505  and  _506
REMARK                            x       y       z     vdW  Elec       q    Type
REMARK                         _______ _______ _______ _____ _____    ______ ____
ROOT
ATOM      1  O   HOH     1      -5.644   7.454  18.017  0.00  0.00    +0.000 OA
ENDROOT
TORSDOF 0
REMARK  Name = ../refined-set-2016/1pxn/1pxn_pocket.pdb
REMARK  218 active torsions:
REMARK  status: ('A' for Active; 'I' for Inactive)
REMARK    1  A    between atoms: _1  and  _3
REMARK    2  A    between atoms: _3  and  _4
REMARK    3  A    between atoms: _3  and  _6
REMARK    4  A    between atoms: _6  and  _7
REMARK    5  A    between atoms: _7  and  _8
REMARK    6  A    between atoms: _11  and  _13
REMARK    7  A    between atoms: _13  and  _14
REMARK    8  A    between atoms: _13  and  _16
REMARK    9  A    between atoms: _16  and  _17
REMARK   10  A    between atoms: _17  and  _18
REMARK   11  A    between atoms: _18  and  _19
REMARK   12  A    between atoms: _19  and  _20
REMARK   13  A    between atoms: _24  and  _26
REMARK   14  A    between atoms: _26  and  _27
REMARK   15  A    between atoms: _26  and  _29
REMARK   16  A    between atoms: _29  and  _30
REMARK   17  A    between atoms: _33  and  _35
REMARK   18  A    between atoms: _35  and  _36
REMARK   19  A    between atoms: _38  and  _40
REMARK   20  A    between atoms: _40  and  _41
REMARK   21  A    between atoms: _40  and  _43
REMARK   22  A    between atoms: _43  and  _44
REMARK   23  A    between atoms: _44  and  _45
REMARK   24  A    between atoms: _48  and  _50
REMARK   25  A    between atoms: _50  and  _51
REMARK   26  A    between atoms: _53  and  _55
REMARK   27  A    between atoms: _55  and  _56
REMARK   28  A    between atoms: _55  and  _58
REMARK   29  A    between atoms: _58  and  _59
REMARK   30  A    between atoms: _62  and  _64
REMARK   31  A    between atoms: _64  and  _65
REMARK   32  A    between atoms: _64  and  _67
REMARK   33  A    between atoms: _67  and  _68
REMARK   34  A    between atoms: _73  and  _74
REMARK   35  A    between atoms: _76  and  _78
REMARK   36  A    between atoms: _78  and  _79
REMARK   37  A    between atoms: _81  and  _83
REMARK   38  A    between atoms: _83  and  _84
REMARK   39  A    between atoms: _83  and  _86
REMARK   40  A    between atoms: _89  and  _91
REMARK   41  A    between atoms: _91  and  _92
REMARK   42  A    between atoms: _91  and  _94
REMARK   43  A    between atoms: _97  and  _99
REMARK   44  A    between atoms: _99  and  _100
REMARK   45  A    between atoms: _99  and  _102
REMARK   46  A    between atoms: _102  and  _103
REMARK   47  A    between atoms: _108  and  _109
REMARK   48  A    between atoms: _111  and  _113
REMARK   49  A    between atoms: _113  and  _114
REMARK   50  A    between atoms: _113  and  _116
REMARK   51  A    between atoms: _116  and  _117
REMARK   52  A    between atoms: _117  and  _118
REMARK   53  A    between atoms: _118  and  _119
REMARK   54  A    between atoms: _119  and  _120
REMARK   55  A    between atoms: _124  and  _126
REMARK   56  A    between atoms: _126  and  _127
REMARK   57  A    between atoms: _130  and  _132
REMARK   58  A    between atoms: _132  and  _133
REMARK   59  A    between atoms: _132  and  _135
REMARK   60  A    between atoms: _138  and  _140
REMARK   61  A    between atoms: _140  and  _141
REMARK   62  A    between atoms: _140  and  _143
REMARK   63  A    between atoms: _146  and  _148
REMARK   64  A    between atoms: _148  and  _149
REMARK   65  A    between atoms: _152  and  _154
REMARK   66  A    between atoms: _154  and  _155
REMARK   67  A    between atoms: _154  and  _157
REMARK   68  A    between atoms: _157  and  _158
REMARK   69  A    between atoms: _161  and  _163
REMARK   70  A    between atoms: _163  and  _164
REMARK   71  A    between atoms: _163  and  _166
REMARK   72  A    between atoms: _166  and  _167
REMARK   73  A    between atoms: _167  and  _168
REMARK   74  A    between atoms: _168  and  _169
REMARK   75  A    between atoms: _169  and  _170
REMARK   76  A    between atoms: _174  and  _176
REMARK   77  A    between atoms: _176  and  _177
REMARK   78  A    between atoms: _176  and  _179
REMARK   79  A    between atoms: _182  and  _184
REMARK   80  A    between atoms: _184  and  _185
REMARK   81  A    between atoms: _184  and  _187
REMARK   82  A    between atoms: _187  and  _188
REMARK   83  A    between atoms: _188  and  _189
REMARK   84  A    between atoms: _189  and  _190
REMARK   85  A    between atoms: _190  and  _191
REMARK   86  A    between atoms: _195  and  _197
REMARK   87  A    between atoms: _197  and  _198
REMARK   88  A    between atoms: _197  and  _200
REMARK   89  A    between atoms: _200  and  _201
REMARK   90  A    between atoms: _204  and  _206
REMARK   91  A    between atoms: _206  and  _207
REMARK   92  A    between atoms: _206  and  _209
REMARK   93  A    between atoms: _209  and  _210
REMARK   94  A    between atoms: _213  and  _215
REMARK   95  A    between atoms: _215  and  _216
REMARK   96  A    between atoms: _215  and  _218
REMARK   97  A    between atoms: _218  and  _219
REMARK   98  A    between atoms: _222  and  _224
REMARK   99  A    between atoms: _224  and  _225
REMARK  100  A    between atoms: _224  and  _227
REMARK  101  A    between atoms: _230  and  _232
REMARK  102  A    between atoms: _232  and  _233
REMARK  103  A    between atoms: _232  and  _235
REMARK  104  A    between atoms: _235  and  _236
REMARK  105  A    between atoms: _242  and  _244
REMARK  106  A    between atoms: _244  and  _245
REMARK  107  A    between atoms: _244  and  _247
REMARK  108  A    between atoms: _247  and  _248
REMARK  109  A    between atoms: _248  and  _249
REMARK  110  A    between atoms: _252  and  _254
REMARK  111  A    between atoms: _254  and  _255
REMARK  112  A    between atoms: _254  and  _257
REMARK  113  A    between atoms: _257  and  _258
REMARK  114  A    between atoms: _264  and  _266
REMARK  115  A    between atoms: _266  and  _267
REMARK  116  A    between atoms: _266  and  _269
REMARK  117  A    between atoms: _269  and  _270
REMARK  118  A    between atoms: _273  and  _275
REMARK  119  A    between atoms: _275  and  _276
REMARK  120  A    between atoms: _275  and  _278
REMARK  121  A    between atoms: _278  and  _279
REMARK  122  A    between atoms: _284  and  _286
REMARK  123  A    between atoms: _286  and  _287
REMARK  124  A    between atoms: _286  and  _289
REMARK  125  A    between atoms: _289  and  _290
REMARK  126  A    between atoms: _290  and  _291
REMARK  127  A    between atoms: _296  and  _298
REMARK  128  A    between atoms: _298  and  _299
REMARK  129  A    between atoms: _298  and  _301
REMARK  130  A    between atoms: _301  and  _302
REMARK  131  A    between atoms: _305  and  _307
REMARK  132  A    between atoms: _307  and  _308
REMARK  133  A    between atoms: _307  and  _310
REMARK  134  A    between atoms: _310  and  _311
REMARK  135  A    between atoms: _314  and  _316
REMARK  136  A    between atoms: _316  and  _317
REMARK  137  A    between atoms: _316  and  _319
REMARK  138  A    between atoms: _319  and  _320
REMARK  139  A    between atoms: _320  and  _321
REMARK  140  A    between atoms: _321  and  _322
REMARK  141  A    between atoms: _322  and  _323
REMARK  142  A    between atoms: _327  and  _329
REMARK  143  A    between atoms: _329  and  _330
REMARK  144  A    between atoms: _329  and  _332
REMARK  145  A    between atoms: _332  and  _333
REMARK  146  A    between atoms: _333  and  _334
REMARK  147  A    between atoms: _334  and  _335
REMARK  148  A    between atoms: _335  and  _336
REMARK  149  A    between atoms: _340  and  _342
REMARK  150  A    between atoms: _342  and  _343
REMARK  151  A    between atoms: _342  and  _345
REMARK  152  A    between atoms: _345  and  _346
REMARK  153  A    between atoms: _352  and  _354
REMARK  154  A    between atoms: _354  and  _355
REMARK  155  A    between atoms: _354  and  _357
REMARK  156  A    between atoms: _357  and  _358
REMARK  157  A    between atoms: _363  and  _365
REMARK  158  A    between atoms: _365  and  _366
REMARK  159  A    between atoms: _365  and  _368
REMARK  160  A    between atoms: _368  and  _369
REMARK  161  A    between atoms: _369  and  _370
REMARK  162  A    between atoms: _370  and  _371
REMARK  163  A    between atoms: _371  and  _372
REMARK  164  A    between atoms: _377  and  _378
REMARK  165  A    between atoms: _383  and  _385
REMARK  166  A    between atoms: _385  and  _386
REMARK  167  A    between atoms: _385  and  _388
REMARK  168  A    between atoms: _388  and  _389
REMARK  169  A    between atoms: _389  and  _390
REMARK  170  A    between atoms: _395  and  _397
REMARK  171  A    between atoms: _397  and  _398
REMARK  172  A    between atoms: _397  and  _400
REMARK  173  A    between atoms: _400  and  _401
REMARK  174  A    between atoms: _406  and  _408
REMARK  175  A    between atoms: _408  and  _409
REMARK  176  A    between atoms: _408  and  _411
REMARK  177  A    between atoms: _411  and  _412
REMARK  178  A    between atoms: _415  and  _417
REMARK  179  A    between atoms: _417  and  _418
REMARK  180  A    between atoms: _417  and  _420
REMARK  181  A    between atoms: _420  and  _421
REMARK  182  A    between atoms: _424  and  _426
REMARK  183  A    between atoms: _426  and  _427
REMARK  184  A    between atoms: _426  and  _429
REMARK  185  A    between atoms: _429  and  _430
REMARK  186  A    between atoms: _433  and  _435
REMARK  187  A    between atoms: _435  and  _436
REMARK  188  A    between atoms: _435  and  _438
REMARK  189  A    between atoms: _438  and  _439
REMARK  190  A    between atoms: _439  and  _440
REMARK  191  A    between atoms: _440  and  _441
REMARK  192  A    between atoms: _441  and  _442
REMARK  193  A    between atoms: _446  and  _448
REMARK  194  A    between atoms: _448  and  _449
REMARK  195  A    between atoms: _448  and  _451
REMARK  196  A    between atoms: _451  and  _452
REMARK  197  A    between atoms: _455  and  _457
REMARK  198  A    between atoms: _457  and  _458
REMARK  199  A    between atoms: _461  and  _463
REMARK  200  A    between atoms: _463  and  _464
REMARK  201  A    between atoms: _463  and  _466
REMARK  202  A    between atoms: _466  and  _467
REMARK  203  A    between atoms: _470  and  _472
REMARK  204  A    between atoms: _472  and  _473
REMARK  205  A    between atoms: _472  and  _475
REMARK  206  A    between atoms: _475  and  _476
REMARK  207  A    between atoms: _482  and  _484
REMARK  208  A    between atoms: _484  and  _485
REMARK  209  A    between atoms: _484  and  _487
REMARK  210  A    between atoms: _487  and  _488
REMARK  211  A    between atoms: _491  and  _493
REMARK  212  A    between atoms: _493  and  _494
REMARK  213  A    between atoms: _493  and  _496
REMARK  214  A    between atoms: _496  and  _497
REMARK  215  A    between atoms: _500  and  _502
REMARK  216  A    between atoms: _502  and  _503
REMARK  217  A    between atoms: _502  and  _505
REMARK  218  A    between atoms: _505  and  _506
REMARK                            x       y       z     vdW  Elec       q    Type
REMARK                         _______ _______ _______ _____ _____    ______ ____
ROOT
ATOM      1  O   HOH     1       5.278  13.262  24.213  0.00  0.00    +0.000 OA
ENDROOT
TORSDOF 0
