REMARK  Name = ../refined-set-2016/3v2q/3v2q_pocket.pdb
REMARK  266 active torsions:
REMARK  status: ('A' for Active; 'I' for Inactive)
REMARK    1  A    between atoms: _1  and  _3
REMARK    2  A    between atoms: _3  and  _4
REMARK    3  A    between atoms: _3  and  _6
REMARK    4  A    between atoms: _6  and  _7
REMARK    5  A    between atoms: _7  and  _8
REMARK    6  A    between atoms: _11  and  _13
REMARK    7  A    between atoms: _13  and  _14
REMARK    8  A    between atoms: _13  and  _16
REMARK    9  A    between atoms: _16  and  _17
REMARK   10  A    between atoms: _20  and  _22
REMARK   11  A    between atoms: _22  and  _23
REMARK   12  A    between atoms: _22  and  _25
REMARK   13  A    between atoms: _25  and  _26
REMARK   14  A    between atoms: _29  and  _31
REMARK   15  A    between atoms: _31  and  _32
REMARK   16  A    between atoms: _31  and  _34
REMARK   17  A    between atoms: _34  and  _35
REMARK   18  A    between atoms: _40  and  _42
REMARK   19  A    between atoms: _42  and  _43
REMARK   20  A    between atoms: _46  and  _48
REMARK   21  A    between atoms: _48  and  _49
REMARK   22  A    between atoms: _48  and  _51
REMARK   23  A    between atoms: _51  and  _52
REMARK   24  A    between atoms: _55  and  _57
REMARK   25  A    between atoms: _57  and  _58
REMARK   26  A    between atoms: _57  and  _60
REMARK   27  A    between atoms: _63  and  _65
REMARK   28  A    between atoms: _65  and  _66
REMARK   29  A    between atoms: _65  and  _68
REMARK   30  A    between atoms: _68  and  _69
REMARK   31  A    between atoms: _69  and  _70
REMARK   32  A    between atoms: _70  and  _71
REMARK   33  A    between atoms: _80  and  _82
REMARK   34  A    between atoms: _82  and  _83
REMARK   35  A    between atoms: _82  and  _85
REMARK   36  A    between atoms: _85  and  _86
REMARK   37  A    between atoms: _89  and  _91
REMARK   38  A    between atoms: _91  and  _92
REMARK   39  A    between atoms: _91  and  _94
REMARK   40  A    between atoms: _94  and  _95
REMARK   41  A    between atoms: _98  and  _100
REMARK   42  A    between atoms: _100  and  _101
REMARK   43  A    between atoms: _100  and  _103
REMARK   44  A    between atoms: _103  and  _104
REMARK   45  A    between atoms: _104  and  _105
REMARK   46  A    between atoms: _110  and  _112
REMARK   47  A    between atoms: _112  and  _113
REMARK   48  A    between atoms: _112  and  _115
REMARK   49  A    between atoms: _118  and  _120
REMARK   50  A    between atoms: _120  and  _121
REMARK   51  A    between atoms: _120  and  _123
REMARK   52  A    between atoms: _123  and  _124
REMARK   53  A    between atoms: _127  and  _129
REMARK   54  A    between atoms: _129  and  _130
REMARK   55  A    between atoms: _129  and  _132
REMARK   56  A    between atoms: _132  and  _133
REMARK   57  A    between atoms: _133  and  _134
REMARK   58  A    between atoms: _137  and  _139
REMARK   59  A    between atoms: _139  and  _140
REMARK   60  A    between atoms: _139  and  _142
REMARK   61  A    between atoms: _142  and  _143
REMARK   62  A    between atoms: _146  and  _148
REMARK   63  A    between atoms: _148  and  _149
REMARK   64  A    between atoms: _148  and  _151
REMARK   65  A    between atoms: _151  and  _152
REMARK   66  A    between atoms: _155  and  _157
REMARK   67  A    between atoms: _157  and  _158
REMARK   68  A    between atoms: _157  and  _160
REMARK   69  A    between atoms: _160  and  _161
REMARK   70  A    between atoms: _166  and  _168
REMARK   71  A    between atoms: _168  and  _169
REMARK   72  A    between atoms: _172  and  _174
REMARK   73  A    between atoms: _174  and  _175
REMARK   74  A    between atoms: _174  and  _177
REMARK   75  A    between atoms: _177  and  _178
REMARK   76  A    between atoms: _181  and  _183
REMARK   77  A    between atoms: _183  and  _184
REMARK   78  A    between atoms: _183  and  _186
REMARK   79  A    between atoms: _189  and  _191
REMARK   80  A    between atoms: _191  and  _192
REMARK   81  A    between atoms: _191  and  _194
REMARK   82  A    between atoms: _194  and  _195
REMARK   83  A    between atoms: _195  and  _196
REMARK   84  A    between atoms: _196  and  _197
REMARK   85  A    between atoms: _206  and  _208
REMARK   86  A    between atoms: _208  and  _209
REMARK   87  A    between atoms: _208  and  _211
REMARK   88  A    between atoms: _211  and  _212
REMARK   89  A    between atoms: _215  and  _217
REMARK   90  A    between atoms: _217  and  _218
REMARK   91  A    between atoms: _217  and  _220
REMARK   92  A    between atoms: _220  and  _221
REMARK   93  A    between atoms: _224  and  _226
REMARK   94  A    between atoms: _226  and  _227
REMARK   95  A    between atoms: _226  and  _229
REMARK   96  A    between atoms: _229  and  _230
REMARK   97  A    between atoms: _230  and  _231
REMARK   98  A    between atoms: _236  and  _238
REMARK   99  A    between atoms: _238  and  _239
REMARK  100  A    between atoms: _238  and  _241
REMARK  101  A    between atoms: _244  and  _246
REMARK  102  A    between atoms: _246  and  _247
REMARK  103  A    between atoms: _246  and  _249
REMARK  104  A    between atoms: _249  and  _250
REMARK  105  A    between atoms: _253  and  _255
REMARK  106  A    between atoms: _255  and  _256
REMARK  107  A    between atoms: _255  and  _258
REMARK  108  A    between atoms: _258  and  _259
REMARK  109  A    between atoms: _259  and  _260
REMARK  110  A    between atoms: _263  and  _265
REMARK  111  A    between atoms: _265  and  _266
REMARK  112  A    between atoms: _265  and  _268
REMARK  113  A    between atoms: _268  and  _269
REMARK  114  A    between atoms: _272  and  _274
REMARK  115  A    between atoms: _274  and  _275
REMARK  116  A    between atoms: _274  and  _277
REMARK  117  A    between atoms: _277  and  _278
REMARK  118  A    between atoms: _281  and  _283
REMARK  119  A    between atoms: _283  and  _284
REMARK  120  A    between atoms: _283  and  _286
REMARK  121  A    between atoms: _286  and  _287
REMARK  122  A    between atoms: _292  and  _294
REMARK  123  A    between atoms: _294  and  _295
REMARK  124  A    between atoms: _298  and  _300
REMARK  125  A    between atoms: _300  and  _301
REMARK  126  A    between atoms: _300  and  _303
REMARK  127  A    between atoms: _303  and  _304
REMARK  128  A    between atoms: _307  and  _309
REMARK  129  A    between atoms: _309  and  _310
REMARK  130  A    between atoms: _309  and  _312
REMARK  131  A    between atoms: _315  and  _317
REMARK  132  A    between atoms: _317  and  _318
REMARK  133  A    between atoms: _317  and  _320
REMARK  134  A    between atoms: _320  and  _321
REMARK  135  A    between atoms: _321  and  _322
REMARK  136  A    between atoms: _322  and  _323
REMARK  137  A    between atoms: _332  and  _334
REMARK  138  A    between atoms: _334  and  _335
REMARK  139  A    between atoms: _334  and  _337
REMARK  140  A    between atoms: _337  and  _338
REMARK  141  A    between atoms: _341  and  _343
REMARK  142  A    between atoms: _343  and  _344
REMARK  143  A    between atoms: _343  and  _346
REMARK  144  A    between atoms: _346  and  _347
REMARK  145  A    between atoms: _350  and  _352
REMARK  146  A    between atoms: _352  and  _353
REMARK  147  A    between atoms: _352  and  _355
REMARK  148  A    between atoms: _355  and  _356
REMARK  149  A    between atoms: _356  and  _357
REMARK  150  A    between atoms: _357  and  _358
REMARK  151  A    between atoms: _367  and  _369
REMARK  152  A    between atoms: _369  and  _370
REMARK  153  A    between atoms: _369  and  _372
REMARK  154  A    between atoms: _372  and  _373
REMARK  155  A    between atoms: _373  and  _374
REMARK  156  A    between atoms: _379  and  _381
REMARK  157  A    between atoms: _381  and  _382
REMARK  158  A    between atoms: _381  and  _384
REMARK  159  A    between atoms: _387  and  _389
REMARK  160  A    between atoms: _389  and  _390
REMARK  161  A    between atoms: _389  and  _392
REMARK  162  A    between atoms: _392  and  _393
REMARK  163  A    between atoms: _396  and  _398
REMARK  164  A    between atoms: _398  and  _399
REMARK  165  A    between atoms: _398  and  _401
REMARK  166  A    between atoms: _401  and  _402
REMARK  167  A    between atoms: _402  and  _403
REMARK  168  A    between atoms: _406  and  _408
REMARK  169  A    between atoms: _408  and  _409
REMARK  170  A    between atoms: _408  and  _411
REMARK  171  A    between atoms: _411  and  _412
REMARK  172  A    between atoms: _415  and  _417
REMARK  173  A    between atoms: _417  and  _418
REMARK  174  A    between atoms: _417  and  _420
REMARK  175  A    between atoms: _420  and  _421
REMARK  176  A    between atoms: _424  and  _426
REMARK  177  A    between atoms: _426  and  _427
REMARK  178  A    between atoms: _426  and  _429
REMARK  179  A    between atoms: _429  and  _430
REMARK  180  A    between atoms: _435  and  _437
REMARK  181  A    between atoms: _437  and  _438
REMARK  182  A    between atoms: _441  and  _443
REMARK  183  A    between atoms: _443  and  _444
REMARK  184  A    between atoms: _443  and  _446
REMARK  185  A    between atoms: _446  and  _447
REMARK  186  A    between atoms: _450  and  _452
REMARK  187  A    between atoms: _452  and  _453
REMARK  188  A    between atoms: _452  and  _455
REMARK  189  A    between atoms: _458  and  _460
REMARK  190  A    between atoms: _460  and  _461
REMARK  191  A    between atoms: _460  and  _463
REMARK  192  A    between atoms: _463  and  _464
REMARK  193  A    between atoms: _464  and  _465
REMARK  194  A    between atoms: _465  and  _466
REMARK  195  A    between atoms: _475  and  _477
REMARK  196  A    between atoms: _477  and  _478
REMARK  197  A    between atoms: _477  and  _480
REMARK  198  A    between atoms: _480  and  _481
REMARK  199  A    between atoms: _484  and  _486
REMARK  200  A    between atoms: _486  and  _487
REMARK  201  A    between atoms: _486  and  _489
REMARK  202  A    between atoms: _489  and  _490
REMARK  203  A    between atoms: _493  and  _495
REMARK  204  A    between atoms: _495  and  _496
REMARK  205  A    between atoms: _495  and  _498
REMARK  206  A    between atoms: _498  and  _499
REMARK  207  A    between atoms: _499  and  _500
REMARK  208  A    between atoms: _505  and  _507
REMARK  209  A    between atoms: _507  and  _508
REMARK  210  A    between atoms: _507  and  _510
REMARK  211  A    between atoms: _513  and  _515
REMARK  212  A    between atoms: _515  and  _516
REMARK  213  A    between atoms: _515  and  _518
REMARK  214  A    between atoms: _518  and  _519
REMARK  215  A    between atoms: _522  and  _524
REMARK  216  A    between atoms: _524  and  _525
REMARK  217  A    between atoms: _524  and  _527
REMARK  218  A    between atoms: _527  and  _528
REMARK  219  A    between atoms: _528  and  _529
REMARK  220  A    between atoms: _532  and  _534
REMARK  221  A    between atoms: _534  and  _535
REMARK  222  A    between atoms: _534  and  _537
REMARK  223  A    between atoms: _537  and  _538
REMARK  224  A    between atoms: _541  and  _543
REMARK  225  A    between atoms: _543  and  _544
REMARK  226  A    between atoms: _543  and  _546
REMARK  227  A    between atoms: _546  and  _547
REMARK  228  A    between atoms: _550  and  _552
REMARK  229  A    between atoms: _552  and  _553
REMARK  230  A    between atoms: _552  and  _555
REMARK  231  A    between atoms: _555  and  _556
REMARK  232  A    between atoms: _561  and  _563
REMARK  233  A    between atoms: _563  and  _564
REMARK  234  A    between atoms: _567  and  _569
REMARK  235  A    between atoms: _569  and  _570
REMARK  236  A    between atoms: _569  and  _572
REMARK  237  A    between atoms: _572  and  _573
REMARK  238  A    between atoms: _576  and  _578
REMARK  239  A    between atoms: _578  and  _579
REMARK  240  A    between atoms: _578  and  _581
REMARK  241  A    between atoms: _584  and  _586
REMARK  242  A    between atoms: _586  and  _587
REMARK  243  A    between atoms: _586  and  _589
REMARK  244  A    between atoms: _589  and  _590
REMARK  245  A    between atoms: _590  and  _591
REMARK  246  A    between atoms: _591  and  _592
REMARK  247  A    between atoms: _601  and  _603
REMARK  248  A    between atoms: _603  and  _604
REMARK  249  A    between atoms: _603  and  _606
REMARK  250  A    between atoms: _606  and  _607
REMARK  251  A    between atoms: _610  and  _612
REMARK  252  A    between atoms: _612  and  _613
REMARK  253  A    between atoms: _612  and  _615
REMARK  254  A    between atoms: _615  and  _616
REMARK  255  A    between atoms: _619  and  _621
REMARK  256  A    between atoms: _621  and  _622
REMARK  257  A    between atoms: _621  and  _624
REMARK  258  A    between atoms: _624  and  _625
REMARK  259  A    between atoms: _625  and  _626
REMARK  260  A    between atoms: _631  and  _633
REMARK  261  A    between atoms: _633  and  _634
REMARK  262  A    between atoms: _633  and  _636
REMARK  263  A    between atoms: _639  and  _641
REMARK  264  A    between atoms: _641  and  _642
REMARK  265  A    between atoms: _641  and  _644
REMARK  266  A    between atoms: _644  and  _645
REMARK                            x       y       z     vdW  Elec       q    Type
REMARK                         _______ _______ _______ _____ _____    ______ ____
ROOT
ATOM      1  C   GLU A   1      16.580   7.466  -1.496  0.00  0.00    +0.238 C 
ATOM      2  O   GLU A   1      15.727   7.282  -0.645  0.00  0.00    -0.274 OA
ATOM      3  N   LEU A   2      17.522   6.568  -1.763  0.00  0.00    -0.298 N 
ATOM      4  H   LEU A   2      18.235   6.772  -2.492  0.00  0.00    +0.150 HD
ENDROOT
BRANCH   1   5
ATOM      5  CA  GLU A   1      16.600   8.758  -2.313  0.00  0.00    +0.145 C 
BRANCH   5   6
ATOM      6  N   GLU A   1      17.991   9.154  -2.567  0.00  0.00    -0.238 NA
ATOM      7  H   GLU A   1      18.349   9.198  -3.542  0.00  0.00    +0.142 HD
ENDBRANCH   5   6
BRANCH   5   8
ATOM      8  CB  GLU A   1      15.831   8.513  -3.625  0.00  0.00    +0.038 C 
BRANCH   8   9
ATOM      9  CG  GLU A   1      15.620   9.720  -4.530  0.00  0.00    +0.116 C 
BRANCH   9  10
ATOM     10  CD  GLU A   1      14.821  10.835  -3.869  0.00  0.00    +0.365 C 
ATOM     11  OE2 GLU A   1      13.854  10.537  -3.136  0.00  0.00    -0.246 OA
ATOM     12  OE1 GLU A   1      15.156  12.015  -4.095  0.00  0.00    -0.246 OA
ENDBRANCH   9  10
ENDBRANCH   8   9
ENDBRANCH   5   8
ENDBRANCH   1   5
BRANCH   3  13
ATOM     13  CA  LEU A   2      17.568   5.297  -1.044  0.00  0.00    +0.137 C 
BRANCH  13  14
ATOM     14  C   LEU A   2      17.938   5.508   0.415  0.00  0.00    +0.227 C 
ATOM     15  O   LEU A   2      17.388   4.857   1.304  0.00  0.00    -0.286 OA
ENDBRANCH  13  14
BRANCH  13  16
ATOM     16  CB  LEU A   2      18.563   4.345  -1.709  0.00  0.00    +0.028 C 
BRANCH  16  17
ATOM     17  CG  LEU A   2      18.162   3.690  -3.032  0.00  0.00    +0.002 C 
ATOM     18  CD2 LEU A   2      16.917   2.850  -2.820  0.00  0.00    +0.000 C 
ATOM     19  CD1 LEU A   2      19.305   2.818  -3.552  0.00  0.00    +0.000 C 
ENDBRANCH  16  17
ENDBRANCH  13  16
ENDBRANCH   3  13
TORSDOF 9
REMARK  Name = ../refined-set-2016/3v2q/3v2q_pocket.pdb
REMARK  266 active torsions:
REMARK  status: ('A' for Active; 'I' for Inactive)
REMARK    1  A    between atoms: _1  and  _3
REMARK    2  A    between atoms: _3  and  _4
REMARK    3  A    between atoms: _3  and  _6
REMARK    4  A    between atoms: _6  and  _7
REMARK    5  A    between atoms: _7  and  _8
REMARK    6  A    between atoms: _11  and  _13
REMARK    7  A    between atoms: _13  and  _14
REMARK    8  A    between atoms: _13  and  _16
REMARK    9  A    between atoms: _16  and  _17
REMARK   10  A    between atoms: _20  and  _22
REMARK   11  A    between atoms: _22  and  _23
REMARK   12  A    between atoms: _22  and  _25
REMARK   13  A    between atoms: _25  and  _26
REMARK   14  A    between atoms: _29  and  _31
REMARK   15  A    between atoms: _31  and  _32
REMARK   16  A    between atoms: _31  and  _34
REMARK   17  A    between atoms: _34  and  _35
REMARK   18  A    between atoms: _40  and  _42
REMARK   19  A    between atoms: _42  and  _43
REMARK   20  A    between atoms: _46  and  _48
REMARK   21  A    between atoms: _48  and  _49
REMARK   22  A    between atoms: _48  and  _51
REMARK   23  A    between atoms: _51  and  _52
REMARK   24  A    between atoms: _55  and  _57
REMARK   25  A    between atoms: _57  and  _58
REMARK   26  A    between atoms: _57  and  _60
REMARK   27  A    between atoms: _63  and  _65
REMARK   28  A    between atoms: _65  and  _66
REMARK   29  A    between atoms: _65  and  _68
REMARK   30  A    between atoms: _68  and  _69
REMARK   31  A    between atoms: _69  and  _70
REMARK   32  A    between atoms: _70  and  _71
REMARK   33  A    between atoms: _80  and  _82
REMARK   34  A    between atoms: _82  and  _83
REMARK   35  A    between atoms: _82  and  _85
REMARK   36  A    between atoms: _85  and  _86
REMARK   37  A    between atoms: _89  and  _91
REMARK   38  A    between atoms: _91  and  _92
REMARK   39  A    between atoms: _91  and  _94
REMARK   40  A    between atoms: _94  and  _95
REMARK   41  A    between atoms: _98  and  _100
REMARK   42  A    between atoms: _100  and  _101
REMARK   43  A    between atoms: _100  and  _103
REMARK   44  A    between atoms: _103  and  _104
REMARK   45  A    between atoms: _104  and  _105
REMARK   46  A    between atoms: _110  and  _112
REMARK   47  A    between atoms: _112  and  _113
REMARK   48  A    between atoms: _112  and  _115
REMARK   49  A    between atoms: _118  and  _120
REMARK   50  A    between atoms: _120  and  _121
REMARK   51  A    between atoms: _120  and  _123
REMARK   52  A    between atoms: _123  and  _124
REMARK   53  A    between atoms: _127  and  _129
REMARK   54  A    between atoms: _129  and  _130
REMARK   55  A    between atoms: _129  and  _132
REMARK   56  A    between atoms: _132  and  _133
REMARK   57  A    between atoms: _133  and  _134
REMARK   58  A    between atoms: _137  and  _139
REMARK   59  A    between atoms: _139  and  _140
REMARK   60  A    between atoms: _139  and  _142
REMARK   61  A    between atoms: _142  and  _143
REMARK   62  A    between atoms: _146  and  _148
REMARK   63  A    between atoms: _148  and  _149
REMARK   64  A    between atoms: _148  and  _151
REMARK   65  A    between atoms: _151  and  _152
REMARK   66  A    between atoms: _155  and  _157
REMARK   67  A    between atoms: _157  and  _158
REMARK   68  A    between atoms: _157  and  _160
REMARK   69  A    between atoms: _160  and  _161
REMARK   70  A    between atoms: _166  and  _168
REMARK   71  A    between atoms: _168  and  _169
REMARK   72  A    between atoms: _172  and  _174
REMARK   73  A    between atoms: _174  and  _175
REMARK   74  A    between atoms: _174  and  _177
REMARK   75  A    between atoms: _177  and  _178
REMARK   76  A    between atoms: _181  and  _183
REMARK   77  A    between atoms: _183  and  _184
REMARK   78  A    between atoms: _183  and  _186
REMARK   79  A    between atoms: _189  and  _191
REMARK   80  A    between atoms: _191  and  _192
REMARK   81  A    between atoms: _191  and  _194
REMARK   82  A    between atoms: _194  and  _195
REMARK   83  A    between atoms: _195  and  _196
REMARK   84  A    between atoms: _196  and  _197
REMARK   85  A    between atoms: _206  and  _208
REMARK   86  A    between atoms: _208  and  _209
REMARK   87  A    between atoms: _208  and  _211
REMARK   88  A    between atoms: _211  and  _212
REMARK   89  A    between atoms: _215  and  _217
REMARK   90  A    between atoms: _217  and  _218
REMARK   91  A    between atoms: _217  and  _220
REMARK   92  A    between atoms: _220  and  _221
REMARK   93  A    between atoms: _224  and  _226
REMARK   94  A    between atoms: _226  and  _227
REMARK   95  A    between atoms: _226  and  _229
REMARK   96  A    between atoms: _229  and  _230
REMARK   97  A    between atoms: _230  and  _231
REMARK   98  A    between atoms: _236  and  _238
REMARK   99  A    between atoms: _238  and  _239
REMARK  100  A    between atoms: _238  and  _241
REMARK  101  A    between atoms: _244  and  _246
REMARK  102  A    between atoms: _246  and  _247
REMARK  103  A    between atoms: _246  and  _249
REMARK  104  A    between atoms: _249  and  _250
REMARK  105  A    between atoms: _253  and  _255
REMARK  106  A    between atoms: _255  and  _256
REMARK  107  A    between atoms: _255  and  _258
REMARK  108  A    between atoms: _258  and  _259
REMARK  109  A    between atoms: _259  and  _260
REMARK  110  A    between atoms: _263  and  _265
REMARK  111  A    between atoms: _265  and  _266
REMARK  112  A    between atoms: _265  and  _268
REMARK  113  A    between atoms: _268  and  _269
REMARK  114  A    between atoms: _272  and  _274
REMARK  115  A    between atoms: _274  and  _275
REMARK  116  A    between atoms: _274  and  _277
REMARK  117  A    between atoms: _277  and  _278
REMARK  118  A    between atoms: _281  and  _283
REMARK  119  A    between atoms: _283  and  _284
REMARK  120  A    between atoms: _283  and  _286
REMARK  121  A    between atoms: _286  and  _287
REMARK  122  A    between atoms: _292  and  _294
REMARK  123  A    between atoms: _294  and  _295
REMARK  124  A    between atoms: _298  and  _300
REMARK  125  A    between atoms: _300  and  _301
REMARK  126  A    between atoms: _300  and  _303
REMARK  127  A    between atoms: _303  and  _304
REMARK  128  A    between atoms: _307  and  _309
REMARK  129  A    between atoms: _309  and  _310
REMARK  130  A    between atoms: _309  and  _312
REMARK  131  A    between atoms: _315  and  _317
REMARK  132  A    between atoms: _317  and  _318
REMARK  133  A    between atoms: _317  and  _320
REMARK  134  A    between atoms: _320  and  _321
REMARK  135  A    between atoms: _321  and  _322
REMARK  136  A    between atoms: _322  and  _323
REMARK  137  A    between atoms: _332  and  _334
REMARK  138  A    between atoms: _334  and  _335
REMARK  139  A    between atoms: _334  and  _337
REMARK  140  A    between atoms: _337  and  _338
REMARK  141  A    between atoms: _341  and  _343
REMARK  142  A    between atoms: _343  and  _344
REMARK  143  A    between atoms: _343  and  _346
REMARK  144  A    between atoms: _346  and  _347
REMARK  145  A    between atoms: _350  and  _352
REMARK  146  A    between atoms: _352  and  _353
REMARK  147  A    between atoms: _352  and  _355
REMARK  148  A    between atoms: _355  and  _356
REMARK  149  A    between atoms: _356  and  _357
REMARK  150  A    between atoms: _357  and  _358
REMARK  151  A    between atoms: _367  and  _369
REMARK  152  A    between atoms: _369  and  _370
REMARK  153  A    between atoms: _369  and  _372
REMARK  154  A    between atoms: _372  and  _373
REMARK  155  A    between atoms: _373  and  _374
REMARK  156  A    between atoms: _379  and  _381
REMARK  157  A    between atoms: _381  and  _382
REMARK  158  A    between atoms: _381  and  _384
REMARK  159  A    between atoms: _387  and  _389
REMARK  160  A    between atoms: _389  and  _390
REMARK  161  A    between atoms: _389  and  _392
REMARK  162  A    between atoms: _392  and  _393
REMARK  163  A    between atoms: _396  and  _398
REMARK  164  A    between atoms: _398  and  _399
REMARK  165  A    between atoms: _398  and  _401
REMARK  166  A    between atoms: _401  and  _402
REMARK  167  A    between atoms: _402  and  _403
REMARK  168  A    between atoms: _406  and  _408
REMARK  169  A    between atoms: _408  and  _409
REMARK  170  A    between atoms: _408  and  _411
REMARK  171  A    between atoms: _411  and  _412
REMARK  172  A    between atoms: _415  and  _417
REMARK  173  A    between atoms: _417  and  _418
REMARK  174  A    between atoms: _417  and  _420
REMARK  175  A    between atoms: _420  and  _421
REMARK  176  A    between atoms: _424  and  _426
REMARK  177  A    between atoms: _426  and  _427
REMARK  178  A    between atoms: _426  and  _429
REMARK  179  A    between atoms: _429  and  _430
REMARK  180  A    between atoms: _435  and  _437
REMARK  181  A    between atoms: _437  and  _438
REMARK  182  A    between atoms: _441  and  _443
REMARK  183  A    between atoms: _443  and  _444
REMARK  184  A    between atoms: _443  and  _446
REMARK  185  A    between atoms: _446  and  _447
REMARK  186  A    between atoms: _450  and  _452
REMARK  187  A    between atoms: _452  and  _453
REMARK  188  A    between atoms: _452  and  _455
REMARK  189  A    between atoms: _458  and  _460
REMARK  190  A    between atoms: _460  and  _461
REMARK  191  A    between atoms: _460  and  _463
REMARK  192  A    between atoms: _463  and  _464
REMARK  193  A    between atoms: _464  and  _465
REMARK  194  A    between atoms: _465  and  _466
REMARK  195  A    between atoms: _475  and  _477
REMARK  196  A    between atoms: _477  and  _478
REMARK  197  A    between atoms: _477  and  _480
REMARK  198  A    between atoms: _480  and  _481
REMARK  199  A    between atoms: _484  and  _486
REMARK  200  A    between atoms: _486  and  _487
REMARK  201  A    between atoms: _486  and  _489
REMARK  202  A    between atoms: _489  and  _490
REMARK  203  A    between atoms: _493  and  _495
REMARK  204  A    between atoms: _495  and  _496
REMARK  205  A    between atoms: _495  and  _498
REMARK  206  A    between atoms: _498  and  _499
REMARK  207  A    between atoms: _499  and  _500
REMARK  208  A    between atoms: _505  and  _507
REMARK  209  A    between atoms: _507  and  _508
REMARK  210  A    between atoms: _507  and  _510
REMARK  211  A    between atoms: _513  and  _515
REMARK  212  A    between atoms: _515  and  _516
REMARK  213  A    between atoms: _515  and  _518
REMARK  214  A    between atoms: _518  and  _519
REMARK  215  A    between atoms: _522  and  _524
REMARK  216  A    between atoms: _524  and  _525
REMARK  217  A    between atoms: _524  and  _527
REMARK  218  A    between atoms: _527  and  _528
REMARK  219  A    between atoms: _528  and  _529
REMARK  220  A    between atoms: _532  and  _534
REMARK  221  A    between atoms: _534  and  _535
REMARK  222  A    between atoms: _534  and  _537
REMARK  223  A    between atoms: _537  and  _538
REMARK  224  A    between atoms: _541  and  _543
REMARK  225  A    between atoms: _543  and  _544
REMARK  226  A    between atoms: _543  and  _546
REMARK  227  A    between atoms: _546  and  _547
REMARK  228  A    between atoms: _550  and  _552
REMARK  229  A    between atoms: _552  and  _553
REMARK  230  A    between atoms: _552  and  _555
REMARK  231  A    between atoms: _555  and  _556
REMARK  232  A    between atoms: _561  and  _563
REMARK  233  A    between atoms: _563  and  _564
REMARK  234  A    between atoms: _567  and  _569
REMARK  235  A    between atoms: _569  and  _570
REMARK  236  A    between atoms: _569  and  _572
REMARK  237  A    between atoms: _572  and  _573
REMARK  238  A    between atoms: _576  and  _578
REMARK  239  A    between atoms: _578  and  _579
REMARK  240  A    between atoms: _578  and  _581
REMARK  241  A    between atoms: _584  and  _586
REMARK  242  A    between atoms: _586  and  _587
REMARK  243  A    between atoms: _586  and  _589
REMARK  244  A    between atoms: _589  and  _590
REMARK  245  A    between atoms: _590  and  _591
REMARK  246  A    between atoms: _591  and  _592
REMARK  247  A    between atoms: _601  and  _603
REMARK  248  A    between atoms: _603  and  _604
REMARK  249  A    between atoms: _603  and  _606
REMARK  250  A    between atoms: _606  and  _607
REMARK  251  A    between atoms: _610  and  _612
REMARK  252  A    between atoms: _612  and  _613
REMARK  253  A    between atoms: _612  and  _615
REMARK  254  A    between atoms: _615  and  _616
REMARK  255  A    between atoms: _619  and  _621
REMARK  256  A    between atoms: _621  and  _622
REMARK  257  A    between atoms: _621  and  _624
REMARK  258  A    between atoms: _624  and  _625
REMARK  259  A    between atoms: _625  and  _626
REMARK  260  A    between atoms: _631  and  _633
REMARK  261  A    between atoms: _633  and  _634
REMARK  262  A    between atoms: _633  and  _636
REMARK  263  A    between atoms: _639  and  _641
REMARK  264  A    between atoms: _641  and  _642
REMARK  265  A    between atoms: _641  and  _644
REMARK  266  A    between atoms: _644  and  _645
REMARK                            x       y       z     vdW  Elec       q    Type
REMARK                         _______ _______ _______ _____ _____    ______ ____
ROOT
ATOM      1  C   THR A   1      14.298   4.996   3.504  0.00  0.00    +0.241 C 
ATOM      2  O   THR A   1      13.412   4.755   4.322  0.00  0.00    -0.274 OA
ATOM      3  N   ASN A   2      15.554   4.617   3.684  0.00  0.00    -0.298 N 
ATOM      4  H   ASN A   2      16.275   4.846   2.970  0.00  0.00    +0.150 HD
ENDROOT
BRANCH   1   5
ATOM      5  CA  THR A   1      14.000   5.761   2.225  0.00  0.00    +0.172 C 
BRANCH   5   6
ATOM      6  N   THR A   1      15.005   6.808   2.085  0.00  0.00    -0.236 NA
ATOM      7  H   THR A   1      15.658   6.790   1.276  0.00  0.00    +0.142 HD
ENDBRANCH   5   6
BRANCH   5   8
ATOM      8  CB  THR A   1      14.022   4.760   1.049  0.00  0.00    +0.135 C 
ATOM      9  CG2 THR A   1      13.112   3.566   1.343  0.00  0.00    +0.034 C 
BRANCH   8  10
ATOM     10  OG1 THR A   1      13.559   5.405  -0.141  0.00  0.00    -0.383 OA
ATOM     11  HG1 THR A   1      14.149   6.172  -0.350  0.00  0.00    +0.210 HD
ENDBRANCH   8  10
ENDBRANCH   5   8
ENDBRANCH   1   5
BRANCH   3  12
ATOM     12  CA  ASN A   2      15.924   3.880   4.881  0.00  0.00    +0.146 C 
BRANCH  12  13
ATOM     13  C   ASN A   2      15.775   4.705   6.153  0.00  0.00    +0.227 C 
ATOM     14  O   ASN A   2      15.411   4.170   7.206  0.00  0.00    -0.286 OA
ENDBRANCH  12  13
BRANCH  12  15
ATOM     15  CB  ASN A   2      17.342   3.330   4.745  0.00  0.00    +0.112 C 
BRANCH  15  16
ATOM     16  CG  ASN A   2      17.397   2.114   3.846  0.00  0.00    +0.222 C 
ATOM     17  OD1 ASN A   2      16.553   1.218   3.954  0.00  0.00    -0.275 OA
ATOM     18  ND2 ASN A   2      18.387   2.066   2.958  0.00  0.00    -0.329 N 
ATOM     19 HD21 ASN A   2      19.075   2.844   2.903  0.00  0.00    +0.145 HD
ATOM     20 HD22 ASN A   2      18.473   1.250   2.319  0.00  0.00    +0.145 HD
ENDBRANCH  15  16
ENDBRANCH  12  15
ENDBRANCH   3  12
TORSDOF 8
REMARK  Name = ../refined-set-2016/3v2q/3v2q_pocket.pdb
REMARK  266 active torsions:
REMARK  status: ('A' for Active; 'I' for Inactive)
REMARK    1  A    between atoms: _1  and  _3
REMARK    2  A    between atoms: _3  and  _4
REMARK    3  A    between atoms: _3  and  _6
REMARK    4  A    between atoms: _6  and  _7
REMARK    5  A    between atoms: _7  and  _8
REMARK    6  A    between atoms: _11  and  _13
REMARK    7  A    between atoms: _13  and  _14
REMARK    8  A    between atoms: _13  and  _16
REMARK    9  A    between atoms: _16  and  _17
REMARK   10  A    between atoms: _20  and  _22
REMARK   11  A    between atoms: _22  and  _23
REMARK   12  A    between atoms: _22  and  _25
REMARK   13  A    between atoms: _25  and  _26
REMARK   14  A    between atoms: _29  and  _31
REMARK   15  A    between atoms: _31  and  _32
REMARK   16  A    between atoms: _31  and  _34
REMARK   17  A    between atoms: _34  and  _35
REMARK   18  A    between atoms: _40  and  _42
REMARK   19  A    between atoms: _42  and  _43
REMARK   20  A    between atoms: _46  and  _48
REMARK   21  A    between atoms: _48  and  _49
REMARK   22  A    between atoms: _48  and  _51
REMARK   23  A    between atoms: _51  and  _52
REMARK   24  A    between atoms: _55  and  _57
REMARK   25  A    between atoms: _57  and  _58
REMARK   26  A    between atoms: _57  and  _60
REMARK   27  A    between atoms: _63  and  _65
REMARK   28  A    between atoms: _65  and  _66
REMARK   29  A    between atoms: _65  and  _68
REMARK   30  A    between atoms: _68  and  _69
REMARK   31  A    between atoms: _69  and  _70
REMARK   32  A    between atoms: _70  and  _71
REMARK   33  A    between atoms: _80  and  _82
REMARK   34  A    between atoms: _82  and  _83
REMARK   35  A    between atoms: _82  and  _85
REMARK   36  A    between atoms: _85  and  _86
REMARK   37  A    between atoms: _89  and  _91
REMARK   38  A    between atoms: _91  and  _92
REMARK   39  A    between atoms: _91  and  _94
REMARK   40  A    between atoms: _94  and  _95
REMARK   41  A    between atoms: _98  and  _100
REMARK   42  A    between atoms: _100  and  _101
REMARK   43  A    between atoms: _100  and  _103
REMARK   44  A    between atoms: _103  and  _104
REMARK   45  A    between atoms: _104  and  _105
REMARK   46  A    between atoms: _110  and  _112
REMARK   47  A    between atoms: _112  and  _113
REMARK   48  A    between atoms: _112  and  _115
REMARK   49  A    between atoms: _118  and  _120
REMARK   50  A    between atoms: _120  and  _121
REMARK   51  A    between atoms: _120  and  _123
REMARK   52  A    between atoms: _123  and  _124
REMARK   53  A    between atoms: _127  and  _129
REMARK   54  A    between atoms: _129  and  _130
REMARK   55  A    between atoms: _129  and  _132
REMARK   56  A    between atoms: _132  and  _133
REMARK   57  A    between atoms: _133  and  _134
REMARK   58  A    between atoms: _137  and  _139
REMARK   59  A    between atoms: _139  and  _140
REMARK   60  A    between atoms: _139  and  _142
REMARK   61  A    between atoms: _142  and  _143
REMARK   62  A    between atoms: _146  and  _148
REMARK   63  A    between atoms: _148  and  _149
REMARK   64  A    between atoms: _148  and  _151
REMARK   65  A    between atoms: _151  and  _152
REMARK   66  A    between atoms: _155  and  _157
REMARK   67  A    between atoms: _157  and  _158
REMARK   68  A    between atoms: _157  and  _160
REMARK   69  A    between atoms: _160  and  _161
REMARK   70  A    between atoms: _166  and  _168
REMARK   71  A    between atoms: _168  and  _169
REMARK   72  A    between atoms: _172  and  _174
REMARK   73  A    between atoms: _174  and  _175
REMARK   74  A    between atoms: _174  and  _177
REMARK   75  A    between atoms: _177  and  _178
REMARK   76  A    between atoms: _181  and  _183
REMARK   77  A    between atoms: _183  and  _184
REMARK   78  A    between atoms: _183  and  _186
REMARK   79  A    between atoms: _189  and  _191
REMARK   80  A    between atoms: _191  and  _192
REMARK   81  A    between atoms: _191  and  _194
REMARK   82  A    between atoms: _194  and  _195
REMARK   83  A    between atoms: _195  and  _196
REMARK   84  A    between atoms: _196  and  _197
REMARK   85  A    between atoms: _206  and  _208
REMARK   86  A    between atoms: _208  and  _209
REMARK   87  A    between atoms: _208  and  _211
REMARK   88  A    between atoms: _211  and  _212
REMARK   89  A    between atoms: _215  and  _217
REMARK   90  A    between atoms: _217  and  _218
REMARK   91  A    between atoms: _217  and  _220
REMARK   92  A    between atoms: _220  and  _221
REMARK   93  A    between atoms: _224  and  _226
REMARK   94  A    between atoms: _226  and  _227
REMARK   95  A    between atoms: _226  and  _229
REMARK   96  A    between atoms: _229  and  _230
REMARK   97  A    between atoms: _230  and  _231
REMARK   98  A    between atoms: _236  and  _238
REMARK   99  A    between atoms: _238  and  _239
REMARK  100  A    between atoms: _238  and  _241
REMARK  101  A    between atoms: _244  and  _246
REMARK  102  A    between atoms: _246  and  _247
REMARK  103  A    between atoms: _246  and  _249
REMARK  104  A    between atoms: _249  and  _250
REMARK  105  A    between atoms: _253  and  _255
REMARK  106  A    between atoms: _255  and  _256
REMARK  107  A    between atoms: _255  and  _258
REMARK  108  A    between atoms: _258  and  _259
REMARK  109  A    between atoms: _259  and  _260
REMARK  110  A    between atoms: _263  and  _265
REMARK  111  A    between atoms: _265  and  _266
REMARK  112  A    between atoms: _265  and  _268
REMARK  113  A    between atoms: _268  and  _269
REMARK  114  A    between atoms: _272  and  _274
REMARK  115  A    between atoms: _274  and  _275
REMARK  116  A    between atoms: _274  and  _277
REMARK  117  A    between atoms: _277  and  _278
REMARK  118  A    between atoms: _281  and  _283
REMARK  119  A    between atoms: _283  and  _284
REMARK  120  A    between atoms: _283  and  _286
REMARK  121  A    between atoms: _286  and  _287
REMARK  122  A    between atoms: _292  and  _294
REMARK  123  A    between atoms: _294  and  _295
REMARK  124  A    between atoms: _298  and  _300
REMARK  125  A    between atoms: _300  and  _301
REMARK  126  A    between atoms: _300  and  _303
REMARK  127  A    between atoms: _303  and  _304
REMARK  128  A    between atoms: _307  and  _309
REMARK  129  A    between atoms: _309  and  _310
REMARK  130  A    between atoms: _309  and  _312
REMARK  131  A    between atoms: _315  and  _317
REMARK  132  A    between atoms: _317  and  _318
REMARK  133  A    between atoms: _317  and  _320
REMARK  134  A    between atoms: _320  and  _321
REMARK  135  A    between atoms: _321  and  _322
REMARK  136  A    between atoms: _322  and  _323
REMARK  137  A    between atoms: _332  and  _334
REMARK  138  A    between atoms: _334  and  _335
REMARK  139  A    between atoms: _334  and  _337
REMARK  140  A    between atoms: _337  and  _338
REMARK  141  A    between atoms: _341  and  _343
REMARK  142  A    between atoms: _343  and  _344
REMARK  143  A    between atoms: _343  and  _346
REMARK  144  A    between atoms: _346  and  _347
REMARK  145  A    between atoms: _350  and  _352
REMARK  146  A    between atoms: _352  and  _353
REMARK  147  A    between atoms: _352  and  _355
REMARK  148  A    between atoms: _355  and  _356
REMARK  149  A    between atoms: _356  and  _357
REMARK  150  A    between atoms: _357  and  _358
REMARK  151  A    between atoms: _367  and  _369
REMARK  152  A    between atoms: _369  and  _370
REMARK  153  A    between atoms: _369  and  _372
REMARK  154  A    between atoms: _372  and  _373
REMARK  155  A    between atoms: _373  and  _374
REMARK  156  A    between atoms: _379  and  _381
REMARK  157  A    between atoms: _381  and  _382
REMARK  158  A    between atoms: _381  and  _384
REMARK  159  A    between atoms: _387  and  _389
REMARK  160  A    between atoms: _389  and  _390
REMARK  161  A    between atoms: _389  and  _392
REMARK  162  A    between atoms: _392  and  _393
REMARK  163  A    between atoms: _396  and  _398
REMARK  164  A    between atoms: _398  and  _399
REMARK  165  A    between atoms: _398  and  _401
REMARK  166  A    between atoms: _401  and  _402
REMARK  167  A    between atoms: _402  and  _403
REMARK  168  A    between atoms: _406  and  _408
REMARK  169  A    between atoms: _408  and  _409
REMARK  170  A    between atoms: _408  and  _411
REMARK  171  A    between atoms: _411  and  _412
REMARK  172  A    between atoms: _415  and  _417
REMARK  173  A    between atoms: _417  and  _418
REMARK  174  A    between atoms: _417  and  _420
REMARK  175  A    between atoms: _420  and  _421
REMARK  176  A    between atoms: _424  and  _426
REMARK  177  A    between atoms: _426  and  _427
REMARK  178  A    between atoms: _426  and  _429
REMARK  179  A    between atoms: _429  and  _430
REMARK  180  A    between atoms: _435  and  _437
REMARK  181  A    between atoms: _437  and  _438
REMARK  182  A    between atoms: _441  and  _443
REMARK  183  A    between atoms: _443  and  _444
REMARK  184  A    between atoms: _443  and  _446
REMARK  185  A    between atoms: _446  and  _447
REMARK  186  A    between atoms: _450  and  _452
REMARK  187  A    between atoms: _452  and  _453
REMARK  188  A    between atoms: _452  and  _455
REMARK  189  A    between atoms: _458  and  _460
REMARK  190  A    between atoms: _460  and  _461
REMARK  191  A    between atoms: _460  and  _463
REMARK  192  A    between atoms: _463  and  _464
REMARK  193  A    between atoms: _464  and  _465
REMARK  194  A    between atoms: _465  and  _466
REMARK  195  A    between atoms: _475  and  _477
REMARK  196  A    between atoms: _477  and  _478
REMARK  197  A    between atoms: _477  and  _480
REMARK  198  A    between atoms: _480  and  _481
REMARK  199  A    between atoms: _484  and  _486
REMARK  200  A    between atoms: _486  and  _487
REMARK  201  A    between atoms: _486  and  _489
REMARK  202  A    between atoms: _489  and  _490
REMARK  203  A    between atoms: _493  and  _495
REMARK  204  A    between atoms: _495  and  _496
REMARK  205  A    between atoms: _495  and  _498
REMARK  206  A    between atoms: _498  and  _499
REMARK  207  A    between atoms: _499  and  _500
REMARK  208  A    between atoms: _505  and  _507
REMARK  209  A    between atoms: _507  and  _508
REMARK  210  A    between atoms: _507  and  _510
REMARK  211  A    between atoms: _513  and  _515
REMARK  212  A    between atoms: _515  and  _516
REMARK  213  A    between atoms: _515  and  _518
REMARK  214  A    between atoms: _518  and  _519
REMARK  215  A    between atoms: _522  and  _524
REMARK  216  A    between atoms: _524  and  _525
REMARK  217  A    between atoms: _524  and  _527
REMARK  218  A    between atoms: _527  and  _528
REMARK  219  A    between atoms: _528  and  _529
REMARK  220  A    between atoms: _532  and  _534
REMARK  221  A    between atoms: _534  and  _535
REMARK  222  A    between atoms: _534  and  _537
REMARK  223  A    between atoms: _537  and  _538
REMARK  224  A    between atoms: _541  and  _543
REMARK  225  A    between atoms: _543  and  _544
REMARK  226  A    between atoms: _543  and  _546
REMARK  227  A    between atoms: _546  and  _547
REMARK  228  A    between atoms: _550  and  _552
REMARK  229  A    between atoms: _552  and  _553
REMARK  230  A    between atoms: _552  and  _555
REMARK  231  A    between atoms: _555  and  _556
REMARK  232  A    between atoms: _561  and  _563
REMARK  233  A    between atoms: _563  and  _564
REMARK  234  A    between atoms: _567  and  _569
REMARK  235  A    between atoms: _569  and  _570
REMARK  236  A    between atoms: _569  and  _572
REMARK  237  A    between atoms: _572  and  _573
REMARK  238  A    between atoms: _576  and  _578
REMARK  239  A    between atoms: _578  and  _579
REMARK  240  A    between atoms: _578  and  _581
REMARK  241  A    between atoms: _584  and  _586
REMARK  242  A    between atoms: _586  and  _587
REMARK  243  A    between atoms: _586  and  _589
REMARK  244  A    between atoms: _589  and  _590
REMARK  245  A    between atoms: _590  and  _591
REMARK  246  A    between atoms: _591  and  _592
REMARK  247  A    between atoms: _601  and  _603
REMARK  248  A    between atoms: _603  and  _604
REMARK  249  A    between atoms: _603  and  _606
REMARK  250  A    between atoms: _606  and  _607
REMARK  251  A    between atoms: _610  and  _612
REMARK  252  A    between atoms: _612  and  _613
REMARK  253  A    between atoms: _612  and  _615
REMARK  254  A    between atoms: _615  and  _616
REMARK  255  A    between atoms: _619  and  _621
REMARK  256  A    between atoms: _621  and  _622
REMARK  257  A    between atoms: _621  and  _624
REMARK  258  A    between atoms: _624  and  _625
REMARK  259  A    between atoms: _625  and  _626
REMARK  260  A    between atoms: _631  and  _633
REMARK  261  A    between atoms: _633  and  _634
REMARK  262  A    between atoms: _633  and  _636
REMARK  263  A    between atoms: _639  and  _641
REMARK  264  A    between atoms: _641  and  _642
REMARK  265  A    between atoms: _641  and  _644
REMARK  266  A    between atoms: _644  and  _645
REMARK                            x       y       z     vdW  Elec       q    Type
REMARK                         _______ _______ _______ _____ _____    ______ ____
ROOT
ATOM      1  C   ALA A   1      11.671   5.521   7.514  0.00  0.00    +0.238 C 
ATOM      2  O   ALA A   1      10.852   5.378   8.418  0.00  0.00    -0.274 OA
ATOM      3  N   LEU A   2      12.246   4.492   6.914  0.00  0.00    -0.298 N 
ATOM      4  H   LEU A   2      12.933   4.659   6.151  0.00  0.00    +0.150 HD
ENDROOT
BRANCH   1   5
ATOM      5  CA  ALA A   1      12.078   6.909   7.028  0.00  0.00    +0.145 C 
ATOM      6  CB  ALA A   1      11.270   7.284   5.785  0.00  0.00    +0.028 C 
BRANCH   5   7
ATOM      7  N   ALA A   1      13.507   6.951   6.732  0.00  0.00    -0.238 NA
ATOM      8  H   ALA A   1      13.819   7.109   5.752  0.00  0.00    +0.142 HD
ENDBRANCH   5   7
ENDBRANCH   1   5
BRANCH   3   9
ATOM      9  CA  LEU A   2      11.927   3.126   7.310  0.00  0.00    +0.137 C 
BRANCH   9  10
ATOM     10  C   LEU A   2      12.375   2.830   8.749  0.00  0.00    +0.227 C 
ATOM     11  O   LEU A   2      11.738   2.067   9.472  0.00  0.00    -0.286 OA
ENDBRANCH   9  10
BRANCH   9  12
ATOM     12  CB  LEU A   2      12.583   2.156   6.331  0.00  0.00    +0.028 C 
BRANCH  12  13
ATOM     13  CG  LEU A   2      11.999   0.748   6.251  0.00  0.00    +0.002 C 
ATOM     14  CD2 LEU A   2      10.477   0.829   6.095  0.00  0.00    +0.000 C 
ATOM     15  CD1 LEU A   2      12.631   0.007   5.080  0.00  0.00    +0.000 C 
ENDBRANCH  12  13
ENDBRANCH   9  12
ENDBRANCH   3   9
TORSDOF 6
REMARK  Name = ../refined-set-2016/3v2q/3v2q_pocket.pdb
REMARK  266 active torsions:
REMARK  status: ('A' for Active; 'I' for Inactive)
REMARK    1  A    between atoms: _1  and  _3
REMARK    2  A    between atoms: _3  and  _4
REMARK    3  A    between atoms: _3  and  _6
REMARK    4  A    between atoms: _6  and  _7
REMARK    5  A    between atoms: _7  and  _8
REMARK    6  A    between atoms: _11  and  _13
REMARK    7  A    between atoms: _13  and  _14
REMARK    8  A    between atoms: _13  and  _16
REMARK    9  A    between atoms: _16  and  _17
REMARK   10  A    between atoms: _20  and  _22
REMARK   11  A    between atoms: _22  and  _23
REMARK   12  A    between atoms: _22  and  _25
REMARK   13  A    between atoms: _25  and  _26
REMARK   14  A    between atoms: _29  and  _31
REMARK   15  A    between atoms: _31  and  _32
REMARK   16  A    between atoms: _31  and  _34
REMARK   17  A    between atoms: _34  and  _35
REMARK   18  A    between atoms: _40  and  _42
REMARK   19  A    between atoms: _42  and  _43
REMARK   20  A    between atoms: _46  and  _48
REMARK   21  A    between atoms: _48  and  _49
REMARK   22  A    between atoms: _48  and  _51
REMARK   23  A    between atoms: _51  and  _52
REMARK   24  A    between atoms: _55  and  _57
REMARK   25  A    between atoms: _57  and  _58
REMARK   26  A    between atoms: _57  and  _60
REMARK   27  A    between atoms: _63  and  _65
REMARK   28  A    between atoms: _65  and  _66
REMARK   29  A    between atoms: _65  and  _68
REMARK   30  A    between atoms: _68  and  _69
REMARK   31  A    between atoms: _69  and  _70
REMARK   32  A    between atoms: _70  and  _71
REMARK   33  A    between atoms: _80  and  _82
REMARK   34  A    between atoms: _82  and  _83
REMARK   35  A    between atoms: _82  and  _85
REMARK   36  A    between atoms: _85  and  _86
REMARK   37  A    between atoms: _89  and  _91
REMARK   38  A    between atoms: _91  and  _92
REMARK   39  A    between atoms: _91  and  _94
REMARK   40  A    between atoms: _94  and  _95
REMARK   41  A    between atoms: _98  and  _100
REMARK   42  A    between atoms: _100  and  _101
REMARK   43  A    between atoms: _100  and  _103
REMARK   44  A    between atoms: _103  and  _104
REMARK   45  A    between atoms: _104  and  _105
REMARK   46  A    between atoms: _110  and  _112
REMARK   47  A    between atoms: _112  and  _113
REMARK   48  A    between atoms: _112  and  _115
REMARK   49  A    between atoms: _118  and  _120
REMARK   50  A    between atoms: _120  and  _121
REMARK   51  A    between atoms: _120  and  _123
REMARK   52  A    between atoms: _123  and  _124
REMARK   53  A    between atoms: _127  and  _129
REMARK   54  A    between atoms: _129  and  _130
REMARK   55  A    between atoms: _129  and  _132
REMARK   56  A    between atoms: _132  and  _133
REMARK   57  A    between atoms: _133  and  _134
REMARK   58  A    between atoms: _137  and  _139
REMARK   59  A    between atoms: _139  and  _140
REMARK   60  A    between atoms: _139  and  _142
REMARK   61  A    between atoms: _142  and  _143
REMARK   62  A    between atoms: _146  and  _148
REMARK   63  A    between atoms: _148  and  _149
REMARK   64  A    between atoms: _148  and  _151
REMARK   65  A    between atoms: _151  and  _152
REMARK   66  A    between atoms: _155  and  _157
REMARK   67  A    between atoms: _157  and  _158
REMARK   68  A    between atoms: _157  and  _160
REMARK   69  A    between atoms: _160  and  _161
REMARK   70  A    between atoms: _166  and  _168
REMARK   71  A    between atoms: _168  and  _169
REMARK   72  A    between atoms: _172  and  _174
REMARK   73  A    between atoms: _174  and  _175
REMARK   74  A    between atoms: _174  and  _177
REMARK   75  A    between atoms: _177  and  _178
REMARK   76  A    between atoms: _181  and  _183
REMARK   77  A    between atoms: _183  and  _184
REMARK   78  A    between atoms: _183  and  _186
REMARK   79  A    between atoms: _189  and  _191
REMARK   80  A    between atoms: _191  and  _192
REMARK   81  A    between atoms: _191  and  _194
REMARK   82  A    between atoms: _194  and  _195
REMARK   83  A    between atoms: _195  and  _196
REMARK   84  A    between atoms: _196  and  _197
REMARK   85  A    between atoms: _206  and  _208
REMARK   86  A    between atoms: _208  and  _209
REMARK   87  A    between atoms: _208  and  _211
REMARK   88  A    between atoms: _211  and  _212
REMARK   89  A    between atoms: _215  and  _217
REMARK   90  A    between atoms: _217  and  _218
REMARK   91  A    between atoms: _217  and  _220
REMARK   92  A    between atoms: _220  and  _221
REMARK   93  A    between atoms: _224  and  _226
REMARK   94  A    between atoms: _226  and  _227
REMARK   95  A    between atoms: _226  and  _229
REMARK   96  A    between atoms: _229  and  _230
REMARK   97  A    between atoms: _230  and  _231
REMARK   98  A    between atoms: _236  and  _238
REMARK   99  A    between atoms: _238  and  _239
REMARK  100  A    between atoms: _238  and  _241
REMARK  101  A    between atoms: _244  and  _246
REMARK  102  A    between atoms: _246  and  _247
REMARK  103  A    between atoms: _246  and  _249
REMARK  104  A    between atoms: _249  and  _250
REMARK  105  A    between atoms: _253  and  _255
REMARK  106  A    between atoms: _255  and  _256
REMARK  107  A    between atoms: _255  and  _258
REMARK  108  A    between atoms: _258  and  _259
REMARK  109  A    between atoms: _259  and  _260
REMARK  110  A    between atoms: _263  and  _265
REMARK  111  A    between atoms: _265  and  _266
REMARK  112  A    between atoms: _265  and  _268
REMARK  113  A    between atoms: _268  and  _269
REMARK  114  A    between atoms: _272  and  _274
REMARK  115  A    between atoms: _274  and  _275
REMARK  116  A    between atoms: _274  and  _277
REMARK  117  A    between atoms: _277  and  _278
REMARK  118  A    between atoms: _281  and  _283
REMARK  119  A    between atoms: _283  and  _284
REMARK  120  A    between atoms: _283  and  _286
REMARK  121  A    between atoms: _286  and  _287
REMARK  122  A    between atoms: _292  and  _294
REMARK  123  A    between atoms: _294  and  _295
REMARK  124  A    between atoms: _298  and  _300
REMARK  125  A    between atoms: _300  and  _301
REMARK  126  A    between atoms: _300  and  _303
REMARK  127  A    between atoms: _303  and  _304
REMARK  128  A    between atoms: _307  and  _309
REMARK  129  A    between atoms: _309  and  _310
REMARK  130  A    between atoms: _309  and  _312
REMARK  131  A    between atoms: _315  and  _317
REMARK  132  A    between atoms: _317  and  _318
REMARK  133  A    between atoms: _317  and  _320
REMARK  134  A    between atoms: _320  and  _321
REMARK  135  A    between atoms: _321  and  _322
REMARK  136  A    between atoms: _322  and  _323
REMARK  137  A    between atoms: _332  and  _334
REMARK  138  A    between atoms: _334  and  _335
REMARK  139  A    between atoms: _334  and  _337
REMARK  140  A    between atoms: _337  and  _338
REMARK  141  A    between atoms: _341  and  _343
REMARK  142  A    between atoms: _343  and  _344
REMARK  143  A    between atoms: _343  and  _346
REMARK  144  A    between atoms: _346  and  _347
REMARK  145  A    between atoms: _350  and  _352
REMARK  146  A    between atoms: _352  and  _353
REMARK  147  A    between atoms: _352  and  _355
REMARK  148  A    between atoms: _355  and  _356
REMARK  149  A    between atoms: _356  and  _357
REMARK  150  A    between atoms: _357  and  _358
REMARK  151  A    between atoms: _367  and  _369
REMARK  152  A    between atoms: _369  and  _370
REMARK  153  A    between atoms: _369  and  _372
REMARK  154  A    between atoms: _372  and  _373
REMARK  155  A    between atoms: _373  and  _374
REMARK  156  A    between atoms: _379  and  _381
REMARK  157  A    between atoms: _381  and  _382
REMARK  158  A    between atoms: _381  and  _384
REMARK  159  A    between atoms: _387  and  _389
REMARK  160  A    between atoms: _389  and  _390
REMARK  161  A    between atoms: _389  and  _392
REMARK  162  A    between atoms: _392  and  _393
REMARK  163  A    between atoms: _396  and  _398
REMARK  164  A    between atoms: _398  and  _399
REMARK  165  A    between atoms: _398  and  _401
REMARK  166  A    between atoms: _401  and  _402
REMARK  167  A    between atoms: _402  and  _403
REMARK  168  A    between atoms: _406  and  _408
REMARK  169  A    between atoms: _408  and  _409
REMARK  170  A    between atoms: _408  and  _411
REMARK  171  A    between atoms: _411  and  _412
REMARK  172  A    between atoms: _415  and  _417
REMARK  173  A    between atoms: _417  and  _418
REMARK  174  A    between atoms: _417  and  _420
REMARK  175  A    between atoms: _420  and  _421
REMARK  176  A    between atoms: _424  and  _426
REMARK  177  A    between atoms: _426  and  _427
REMARK  178  A    between atoms: _426  and  _429
REMARK  179  A    between atoms: _429  and  _430
REMARK  180  A    between atoms: _435  and  _437
REMARK  181  A    between atoms: _437  and  _438
REMARK  182  A    between atoms: _441  and  _443
REMARK  183  A    between atoms: _443  and  _444
REMARK  184  A    between atoms: _443  and  _446
REMARK  185  A    between atoms: _446  and  _447
REMARK  186  A    between atoms: _450  and  _452
REMARK  187  A    between atoms: _452  and  _453
REMARK  188  A    between atoms: _452  and  _455
REMARK  189  A    between atoms: _458  and  _460
REMARK  190  A    between atoms: _460  and  _461
REMARK  191  A    between atoms: _460  and  _463
REMARK  192  A    between atoms: _463  and  _464
REMARK  193  A    between atoms: _464  and  _465
REMARK  194  A    between atoms: _465  and  _466
REMARK  195  A    between atoms: _475  and  _477
REMARK  196  A    between atoms: _477  and  _478
REMARK  197  A    between atoms: _477  and  _480
REMARK  198  A    between atoms: _480  and  _481
REMARK  199  A    between atoms: _484  and  _486
REMARK  200  A    between atoms: _486  and  _487
REMARK  201  A    between atoms: _486  and  _489
REMARK  202  A    between atoms: _489  and  _490
REMARK  203  A    between atoms: _493  and  _495
REMARK  204  A    between atoms: _495  and  _496
REMARK  205  A    between atoms: _495  and  _498
REMARK  206  A    between atoms: _498  and  _499
REMARK  207  A    between atoms: _499  and  _500
REMARK  208  A    between atoms: _505  and  _507
REMARK  209  A    between atoms: _507  and  _508
REMARK  210  A    between atoms: _507  and  _510
REMARK  211  A    between atoms: _513  and  _515
REMARK  212  A    between atoms: _515  and  _516
REMARK  213  A    between atoms: _515  and  _518
REMARK  214  A    between atoms: _518  and  _519
REMARK  215  A    between atoms: _522  and  _524
REMARK  216  A    between atoms: _524  and  _525
REMARK  217  A    between atoms: _524  and  _527
REMARK  218  A    between atoms: _527  and  _528
REMARK  219  A    between atoms: _528  and  _529
REMARK  220  A    between atoms: _532  and  _534
REMARK  221  A    between atoms: _534  and  _535
REMARK  222  A    between atoms: _534  and  _537
REMARK  223  A    between atoms: _537  and  _538
REMARK  224  A    between atoms: _541  and  _543
REMARK  225  A    between atoms: _543  and  _544
REMARK  226  A    between atoms: _543  and  _546
REMARK  227  A    between atoms: _546  and  _547
REMARK  228  A    between atoms: _550  and  _552
REMARK  229  A    between atoms: _552  and  _553
REMARK  230  A    between atoms: _552  and  _555
REMARK  231  A    between atoms: _555  and  _556
REMARK  232  A    between atoms: _561  and  _563
REMARK  233  A    between atoms: _563  and  _564
REMARK  234  A    between atoms: _567  and  _569
REMARK  235  A    between atoms: _569  and  _570
REMARK  236  A    between atoms: _569  and  _572
REMARK  237  A    between atoms: _572  and  _573
REMARK  238  A    between atoms: _576  and  _578
REMARK  239  A    between atoms: _578  and  _579
REMARK  240  A    between atoms: _578  and  _581
REMARK  241  A    between atoms: _584  and  _586
REMARK  242  A    between atoms: _586  and  _587
REMARK  243  A    between atoms: _586  and  _589
REMARK  244  A    between atoms: _589  and  _590
REMARK  245  A    between atoms: _590  and  _591
REMARK  246  A    between atoms: _591  and  _592
REMARK  247  A    between atoms: _601  and  _603
REMARK  248  A    between atoms: _603  and  _604
REMARK  249  A    between atoms: _603  and  _606
REMARK  250  A    between atoms: _606  and  _607
REMARK  251  A    between atoms: _610  and  _612
REMARK  252  A    between atoms: _612  and  _613
REMARK  253  A    between atoms: _612  and  _615
REMARK  254  A    between atoms: _615  and  _616
REMARK  255  A    between atoms: _619  and  _621
REMARK  256  A    between atoms: _621  and  _622
REMARK  257  A    between atoms: _621  and  _624
REMARK  258  A    between atoms: _624  and  _625
REMARK  259  A    between atoms: _625  and  _626
REMARK  260  A    between atoms: _631  and  _633
REMARK  261  A    between atoms: _633  and  _634
REMARK  262  A    between atoms: _633  and  _636
REMARK  263  A    between atoms: _639  and  _641
REMARK  264  A    between atoms: _641  and  _642
REMARK  265  A    between atoms: _641  and  _644
REMARK  266  A    between atoms: _644  and  _645
REMARK                            x       y       z     vdW  Elec       q    Type
REMARK                         _______ _______ _______ _____ _____    ______ ____
ROOT
ATOM      1  CA  ARG A   2      10.307   0.671  12.898  0.00  0.00    +0.137 C 
ENDROOT
BRANCH   1   4
ATOM      2  C   VAL A   1       8.796   2.373  12.013  0.00  0.00    +0.238 C 
ATOM      3  O   VAL A   1       7.883   2.009  12.738  0.00  0.00    -0.274 OA
ATOM      4  N   ARG A   2       9.996   1.800  12.021  0.00  0.00    -0.298 N 
ATOM      5  H   ARG A   2      10.734   2.165  11.386  0.00  0.00    +0.150 HD
BRANCH   2   6
ATOM      6  CA  VAL A   1       8.601   3.541  11.048  0.00  0.00    +0.145 C 
BRANCH   6   7
ATOM      7  CB  VAL A   1       8.261   3.001   9.638  0.00  0.00    +0.025 C 
ATOM      8  CG2 VAL A   1       7.204   1.906   9.725  0.00  0.00    +0.002 C 
ATOM      9  CG1 VAL A   1       7.760   4.146   8.761  0.00  0.00    +0.002 C 
ENDBRANCH   6   7
BRANCH   6  10
ATOM     10  N   VAL A   1       9.805   4.370  11.018  0.00  0.00    -0.238 NA
ATOM     11  H   VAL A   1      10.304   4.522  10.118  0.00  0.00    +0.142 HD
ENDBRANCH   6  10
ENDBRANCH   2   6
ENDBRANCH   1   4
BRANCH   1  12
ATOM     12  C   ARG A   2      10.243   1.031  14.372  0.00  0.00    +0.227 C 
ATOM     13  O   ARG A   2       9.776   0.236  15.181  0.00  0.00    -0.286 OA
ENDBRANCH   1  12
BRANCH   1  14
ATOM     14  CB  ARG A   2      11.693   0.123  12.592  0.00  0.00    +0.031 C 
BRANCH  14  15
ATOM     15  CG  ARG A   2      11.777  -0.702  11.346  0.00  0.00    +0.045 C 
BRANCH  15  16
ATOM     16  CD  ARG A   2      13.233  -1.045  11.028  0.00  0.00    +0.174 C 
BRANCH  16  17
ATOM     17  NE  ARG A   2      13.963  -1.494  12.211  0.00  0.00    -0.265 N 
ATOM     18  HE  ARG A   2      13.430  -1.614  13.096  0.00  0.00    +0.259 HD
ATOM     19  CZ  ARG A   2      15.267  -1.759  12.228  0.00  0.00    +0.342 C 
ATOM     20  NH2 ARG A   2      15.845  -2.150  13.350  0.00  0.00    -0.292 N 
ATOM     21 HH21 ARG A   2      15.281  -2.250  14.218  0.00  0.00    +0.255 HD
ATOM     22 HH22 ARG A   2      16.864  -2.358  13.365  0.00  0.00    +0.255 HD
ATOM     23  NH1 ARG A   2      15.996  -1.625  11.128  0.00  0.00    -0.292 N 
ATOM     24 HH11 ARG A   2      17.014  -1.834  11.150  0.00  0.00    +0.255 HD
ATOM     25 HH12 ARG A   2      15.549  -1.311  10.243  0.00  0.00    +0.255 HD
ENDBRANCH  16  17
ENDBRANCH  15  16
ENDBRANCH  14  15
ENDBRANCH   1  14
TORSDOF 9
REMARK  Name = ../refined-set-2016/3v2q/3v2q_pocket.pdb
REMARK  266 active torsions:
REMARK  status: ('A' for Active; 'I' for Inactive)
REMARK    1  A    between atoms: _1  and  _3
REMARK    2  A    between atoms: _3  and  _4
REMARK    3  A    between atoms: _3  and  _6
REMARK    4  A    between atoms: _6  and  _7
REMARK    5  A    between atoms: _7  and  _8
REMARK    6  A    between atoms: _11  and  _13
REMARK    7  A    between atoms: _13  and  _14
REMARK    8  A    between atoms: _13  and  _16
REMARK    9  A    between atoms: _16  and  _17
REMARK   10  A    between atoms: _20  and  _22
REMARK   11  A    between atoms: _22  and  _23
REMARK   12  A    between atoms: _22  and  _25
REMARK   13  A    between atoms: _25  and  _26
REMARK   14  A    between atoms: _29  and  _31
REMARK   15  A    between atoms: _31  and  _32
REMARK   16  A    between atoms: _31  and  _34
REMARK   17  A    between atoms: _34  and  _35
REMARK   18  A    between atoms: _40  and  _42
REMARK   19  A    between atoms: _42  and  _43
REMARK   20  A    between atoms: _46  and  _48
REMARK   21  A    between atoms: _48  and  _49
REMARK   22  A    between atoms: _48  and  _51
REMARK   23  A    between atoms: _51  and  _52
REMARK   24  A    between atoms: _55  and  _57
REMARK   25  A    between atoms: _57  and  _58
REMARK   26  A    between atoms: _57  and  _60
REMARK   27  A    between atoms: _63  and  _65
REMARK   28  A    between atoms: _65  and  _66
REMARK   29  A    between atoms: _65  and  _68
REMARK   30  A    between atoms: _68  and  _69
REMARK   31  A    between atoms: _69  and  _70
REMARK   32  A    between atoms: _70  and  _71
REMARK   33  A    between atoms: _80  and  _82
REMARK   34  A    between atoms: _82  and  _83
REMARK   35  A    between atoms: _82  and  _85
REMARK   36  A    between atoms: _85  and  _86
REMARK   37  A    between atoms: _89  and  _91
REMARK   38  A    between atoms: _91  and  _92
REMARK   39  A    between atoms: _91  and  _94
REMARK   40  A    between atoms: _94  and  _95
REMARK   41  A    between atoms: _98  and  _100
REMARK   42  A    between atoms: _100  and  _101
REMARK   43  A    between atoms: _100  and  _103
REMARK   44  A    between atoms: _103  and  _104
REMARK   45  A    between atoms: _104  and  _105
REMARK   46  A    between atoms: _110  and  _112
REMARK   47  A    between atoms: _112  and  _113
REMARK   48  A    between atoms: _112  and  _115
REMARK   49  A    between atoms: _118  and  _120
REMARK   50  A    between atoms: _120  and  _121
REMARK   51  A    between atoms: _120  and  _123
REMARK   52  A    between atoms: _123  and  _124
REMARK   53  A    between atoms: _127  and  _129
REMARK   54  A    between atoms: _129  and  _130
REMARK   55  A    between atoms: _129  and  _132
REMARK   56  A    between atoms: _132  and  _133
REMARK   57  A    between atoms: _133  and  _134
REMARK   58  A    between atoms: _137  and  _139
REMARK   59  A    between atoms: _139  and  _140
REMARK   60  A    between atoms: _139  and  _142
REMARK   61  A    between atoms: _142  and  _143
REMARK   62  A    between atoms: _146  and  _148
REMARK   63  A    between atoms: _148  and  _149
REMARK   64  A    between atoms: _148  and  _151
REMARK   65  A    between atoms: _151  and  _152
REMARK   66  A    between atoms: _155  and  _157
REMARK   67  A    between atoms: _157  and  _158
REMARK   68  A    between atoms: _157  and  _160
REMARK   69  A    between atoms: _160  and  _161
REMARK   70  A    between atoms: _166  and  _168
REMARK   71  A    between atoms: _168  and  _169
REMARK   72  A    between atoms: _172  and  _174
REMARK   73  A    between atoms: _174  and  _175
REMARK   74  A    between atoms: _174  and  _177
REMARK   75  A    between atoms: _177  and  _178
REMARK   76  A    between atoms: _181  and  _183
REMARK   77  A    between atoms: _183  and  _184
REMARK   78  A    between atoms: _183  and  _186
REMARK   79  A    between atoms: _189  and  _191
REMARK   80  A    between atoms: _191  and  _192
REMARK   81  A    between atoms: _191  and  _194
REMARK   82  A    between atoms: _194  and  _195
REMARK   83  A    between atoms: _195  and  _196
REMARK   84  A    between atoms: _196  and  _197
REMARK   85  A    between atoms: _206  and  _208
REMARK   86  A    between atoms: _208  and  _209
REMARK   87  A    between atoms: _208  and  _211
REMARK   88  A    between atoms: _211  and  _212
REMARK   89  A    between atoms: _215  and  _217
REMARK   90  A    between atoms: _217  and  _218
REMARK   91  A    between atoms: _217  and  _220
REMARK   92  A    between atoms: _220  and  _221
REMARK   93  A    between atoms: _224  and  _226
REMARK   94  A    between atoms: _226  and  _227
REMARK   95  A    between atoms: _226  and  _229
REMARK   96  A    between atoms: _229  and  _230
REMARK   97  A    between atoms: _230  and  _231
REMARK   98  A    between atoms: _236  and  _238
REMARK   99  A    between atoms: _238  and  _239
REMARK  100  A    between atoms: _238  and  _241
REMARK  101  A    between atoms: _244  and  _246
REMARK  102  A    between atoms: _246  and  _247
REMARK  103  A    between atoms: _246  and  _249
REMARK  104  A    between atoms: _249  and  _250
REMARK  105  A    between atoms: _253  and  _255
REMARK  106  A    between atoms: _255  and  _256
REMARK  107  A    between atoms: _255  and  _258
REMARK  108  A    between atoms: _258  and  _259
REMARK  109  A    between atoms: _259  and  _260
REMARK  110  A    between atoms: _263  and  _265
REMARK  111  A    between atoms: _265  and  _266
REMARK  112  A    between atoms: _265  and  _268
REMARK  113  A    between atoms: _268  and  _269
REMARK  114  A    between atoms: _272  and  _274
REMARK  115  A    between atoms: _274  and  _275
REMARK  116  A    between atoms: _274  and  _277
REMARK  117  A    between atoms: _277  and  _278
REMARK  118  A    between atoms: _281  and  _283
REMARK  119  A    between atoms: _283  and  _284
REMARK  120  A    between atoms: _283  and  _286
REMARK  121  A    between atoms: _286  and  _287
REMARK  122  A    between atoms: _292  and  _294
REMARK  123  A    between atoms: _294  and  _295
REMARK  124  A    between atoms: _298  and  _300
REMARK  125  A    between atoms: _300  and  _301
REMARK  126  A    between atoms: _300  and  _303
REMARK  127  A    between atoms: _303  and  _304
REMARK  128  A    between atoms: _307  and  _309
REMARK  129  A    between atoms: _309  and  _310
REMARK  130  A    between atoms: _309  and  _312
REMARK  131  A    between atoms: _315  and  _317
REMARK  132  A    between atoms: _317  and  _318
REMARK  133  A    between atoms: _317  and  _320
REMARK  134  A    between atoms: _320  and  _321
REMARK  135  A    between atoms: _321  and  _322
REMARK  136  A    between atoms: _322  and  _323
REMARK  137  A    between atoms: _332  and  _334
REMARK  138  A    between atoms: _334  and  _335
REMARK  139  A    between atoms: _334  and  _337
REMARK  140  A    between atoms: _337  and  _338
REMARK  141  A    between atoms: _341  and  _343
REMARK  142  A    between atoms: _343  and  _344
REMARK  143  A    between atoms: _343  and  _346
REMARK  144  A    between atoms: _346  and  _347
REMARK  145  A    between atoms: _350  and  _352
REMARK  146  A    between atoms: _352  and  _353
REMARK  147  A    between atoms: _352  and  _355
REMARK  148  A    between atoms: _355  and  _356
REMARK  149  A    between atoms: _356  and  _357
REMARK  150  A    between atoms: _357  and  _358
REMARK  151  A    between atoms: _367  and  _369
REMARK  152  A    between atoms: _369  and  _370
REMARK  153  A    between atoms: _369  and  _372
REMARK  154  A    between atoms: _372  and  _373
REMARK  155  A    between atoms: _373  and  _374
REMARK  156  A    between atoms: _379  and  _381
REMARK  157  A    between atoms: _381  and  _382
REMARK  158  A    between atoms: _381  and  _384
REMARK  159  A    between atoms: _387  and  _389
REMARK  160  A    between atoms: _389  and  _390
REMARK  161  A    between atoms: _389  and  _392
REMARK  162  A    between atoms: _392  and  _393
REMARK  163  A    between atoms: _396  and  _398
REMARK  164  A    between atoms: _398  and  _399
REMARK  165  A    between atoms: _398  and  _401
REMARK  166  A    between atoms: _401  and  _402
REMARK  167  A    between atoms: _402  and  _403
REMARK  168  A    between atoms: _406  and  _408
REMARK  169  A    between atoms: _408  and  _409
REMARK  170  A    between atoms: _408  and  _411
REMARK  171  A    between atoms: _411  and  _412
REMARK  172  A    between atoms: _415  and  _417
REMARK  173  A    between atoms: _417  and  _418
REMARK  174  A    between atoms: _417  and  _420
REMARK  175  A    between atoms: _420  and  _421
REMARK  176  A    between atoms: _424  and  _426
REMARK  177  A    between atoms: _426  and  _427
REMARK  178  A    between atoms: _426  and  _429
REMARK  179  A    between atoms: _429  and  _430
REMARK  180  A    between atoms: _435  and  _437
REMARK  181  A    between atoms: _437  and  _438
REMARK  182  A    between atoms: _441  and  _443
REMARK  183  A    between atoms: _443  and  _444
REMARK  184  A    between atoms: _443  and  _446
REMARK  185  A    between atoms: _446  and  _447
REMARK  186  A    between atoms: _450  and  _452
REMARK  187  A    between atoms: _452  and  _453
REMARK  188  A    between atoms: _452  and  _455
REMARK  189  A    between atoms: _458  and  _460
REMARK  190  A    between atoms: _460  and  _461
REMARK  191  A    between atoms: _460  and  _463
REMARK  192  A    between atoms: _463  and  _464
REMARK  193  A    between atoms: _464  and  _465
REMARK  194  A    between atoms: _465  and  _466
REMARK  195  A    between atoms: _475  and  _477
REMARK  196  A    between atoms: _477  and  _478
REMARK  197  A    between atoms: _477  and  _480
REMARK  198  A    between atoms: _480  and  _481
REMARK  199  A    between atoms: _484  and  _486
REMARK  200  A    between atoms: _486  and  _487
REMARK  201  A    between atoms: _486  and  _489
REMARK  202  A    between atoms: _489  and  _490
REMARK  203  A    between atoms: _493  and  _495
REMARK  204  A    between atoms: _495  and  _496
REMARK  205  A    between atoms: _495  and  _498
REMARK  206  A    between atoms: _498  and  _499
REMARK  207  A    between atoms: _499  and  _500
REMARK  208  A    between atoms: _505  and  _507
REMARK  209  A    between atoms: _507  and  _508
REMARK  210  A    between atoms: _507  and  _510
REMARK  211  A    between atoms: _513  and  _515
REMARK  212  A    between atoms: _515  and  _516
REMARK  213  A    between atoms: _515  and  _518
REMARK  214  A    between atoms: _518  and  _519
REMARK  215  A    between atoms: _522  and  _524
REMARK  216  A    between atoms: _524  and  _525
REMARK  217  A    between atoms: _524  and  _527
REMARK  218  A    between atoms: _527  and  _528
REMARK  219  A    between atoms: _528  and  _529
REMARK  220  A    between atoms: _532  and  _534
REMARK  221  A    between atoms: _534  and  _535
REMARK  222  A    between atoms: _534  and  _537
REMARK  223  A    between atoms: _537  and  _538
REMARK  224  A    between atoms: _541  and  _543
REMARK  225  A    between atoms: _543  and  _544
REMARK  226  A    between atoms: _543  and  _546
REMARK  227  A    between atoms: _546  and  _547
REMARK  228  A    between atoms: _550  and  _552
REMARK  229  A    between atoms: _552  and  _553
REMARK  230  A    between atoms: _552  and  _555
REMARK  231  A    between atoms: _555  and  _556
REMARK  232  A    between atoms: _561  and  _563
REMARK  233  A    between atoms: _563  and  _564
REMARK  234  A    between atoms: _567  and  _569
REMARK  235  A    between atoms: _569  and  _570
REMARK  236  A    between atoms: _569  and  _572
REMARK  237  A    between atoms: _572  and  _573
REMARK  238  A    between atoms: _576  and  _578
REMARK  239  A    between atoms: _578  and  _579
REMARK  240  A    between atoms: _578  and  _581
REMARK  241  A    between atoms: _584  and  _586
REMARK  242  A    between atoms: _586  and  _587
REMARK  243  A    between atoms: _586  and  _589
REMARK  244  A    between atoms: _589  and  _590
REMARK  245  A    between atoms: _590  and  _591
REMARK  246  A    between atoms: _591  and  _592
REMARK  247  A    between atoms: _601  and  _603
REMARK  248  A    between atoms: _603  and  _604
REMARK  249  A    between atoms: _603  and  _606
REMARK  250  A    between atoms: _606  and  _607
REMARK  251  A    between atoms: _610  and  _612
REMARK  252  A    between atoms: _612  and  _613
REMARK  253  A    between atoms: _612  and  _615
REMARK  254  A    between atoms: _615  and  _616
REMARK  255  A    between atoms: _619  and  _621
REMARK  256  A    between atoms: _621  and  _622
REMARK  257  A    between atoms: _621  and  _624
REMARK  258  A    between atoms: _624  and  _625
REMARK  259  A    between atoms: _625  and  _626
REMARK  260  A    between atoms: _631  and  _633
REMARK  261  A    between atoms: _633  and  _634
REMARK  262  A    between atoms: _633  and  _636
REMARK  263  A    between atoms: _639  and  _641
REMARK  264  A    between atoms: _641  and  _642
REMARK  265  A    between atoms: _641  and  _644
REMARK  266  A    between atoms: _644  and  _645
REMARK                            x       y       z     vdW  Elec       q    Type
REMARK                         _______ _______ _______ _____ _____    ______ ____
ROOT
ATOM      1  C   LEU A   1       6.301   2.575  16.167  0.00  0.00    +0.238 C 
ATOM      2  O   LEU A   1       5.531   2.431  17.119  0.00  0.00    -0.274 OA
ATOM      3  N   LEU A   2       6.498   1.649  15.239  0.00  0.00    -0.298 N 
ATOM      4  H   LEU A   2       7.160   1.846  14.461  0.00  0.00    +0.150 HD
ENDROOT
BRANCH   1   5
ATOM      5  CA  LEU A   1       7.092   3.856  15.987  0.00  0.00    +0.145 C 
BRANCH   5   6
ATOM      6  N   LEU A   1       8.485   3.546  15.689  0.00  0.00    -0.238 NA
ATOM      7  H   LEU A   1       8.874   3.810  14.761  0.00  0.00    +0.142 HD
ENDBRANCH   5   6
BRANCH   5   8
ATOM      8  CB  LEU A   1       6.487   4.674  14.849  0.00  0.00    +0.026 C 
BRANCH   8   9
ATOM      9  CG  LEU A   1       6.983   6.111  14.697  0.00  0.00    +0.002 C 
ATOM     10  CD2 LEU A   1       6.225   7.007  15.681  0.00  0.00    +0.000 C 
ATOM     11  CD1 LEU A   1       6.784   6.577  13.250  0.00  0.00    +0.000 C 
ENDBRANCH   8   9
ENDBRANCH   5   8
ENDBRANCH   1   5
BRANCH   3  12
ATOM     12  CA  LEU A   2       5.815   0.367  15.278  0.00  0.00    +0.137 C 
BRANCH  12  13
ATOM     13  C   LEU A   2       6.193  -0.359  16.566  0.00  0.00    +0.227 C 
ATOM     14  O   LEU A   2       5.332  -0.890  17.269  0.00  0.00    -0.286 OA
ENDBRANCH  12  13
BRANCH  12  15
ATOM     15  CB  LEU A   2       6.230  -0.472  14.069  0.00  0.00    +0.028 C 
BRANCH  15  16
ATOM     16  CG  LEU A   2       5.371  -1.670  13.665  0.00  0.00    +0.002 C 
ATOM     17  CD2 LEU A   2       3.936  -1.209  13.337  0.00  0.00    +0.000 C 
ATOM     18  CD1 LEU A   2       5.995  -2.323  12.441  0.00  0.00    +0.000 C 
ENDBRANCH  15  16
ENDBRANCH  12  15
ENDBRANCH   3  12
TORSDOF 8
REMARK  Name = ../refined-set-2016/3v2q/3v2q_pocket.pdb
REMARK  266 active torsions:
REMARK  status: ('A' for Active; 'I' for Inactive)
REMARK    1  A    between atoms: _1  and  _3
REMARK    2  A    between atoms: _3  and  _4
REMARK    3  A    between atoms: _3  and  _6
REMARK    4  A    between atoms: _6  and  _7
REMARK    5  A    between atoms: _7  and  _8
REMARK    6  A    between atoms: _11  and  _13
REMARK    7  A    between atoms: _13  and  _14
REMARK    8  A    between atoms: _13  and  _16
REMARK    9  A    between atoms: _16  and  _17
REMARK   10  A    between atoms: _20  and  _22
REMARK   11  A    between atoms: _22  and  _23
REMARK   12  A    between atoms: _22  and  _25
REMARK   13  A    between atoms: _25  and  _26
REMARK   14  A    between atoms: _29  and  _31
REMARK   15  A    between atoms: _31  and  _32
REMARK   16  A    between atoms: _31  and  _34
REMARK   17  A    between atoms: _34  and  _35
REMARK   18  A    between atoms: _40  and  _42
REMARK   19  A    between atoms: _42  and  _43
REMARK   20  A    between atoms: _46  and  _48
REMARK   21  A    between atoms: _48  and  _49
REMARK   22  A    between atoms: _48  and  _51
REMARK   23  A    between atoms: _51  and  _52
REMARK   24  A    between atoms: _55  and  _57
REMARK   25  A    between atoms: _57  and  _58
REMARK   26  A    between atoms: _57  and  _60
REMARK   27  A    between atoms: _63  and  _65
REMARK   28  A    between atoms: _65  and  _66
REMARK   29  A    between atoms: _65  and  _68
REMARK   30  A    between atoms: _68  and  _69
REMARK   31  A    between atoms: _69  and  _70
REMARK   32  A    between atoms: _70  and  _71
REMARK   33  A    between atoms: _80  and  _82
REMARK   34  A    between atoms: _82  and  _83
REMARK   35  A    between atoms: _82  and  _85
REMARK   36  A    between atoms: _85  and  _86
REMARK   37  A    between atoms: _89  and  _91
REMARK   38  A    between atoms: _91  and  _92
REMARK   39  A    between atoms: _91  and  _94
REMARK   40  A    between atoms: _94  and  _95
REMARK   41  A    between atoms: _98  and  _100
REMARK   42  A    between atoms: _100  and  _101
REMARK   43  A    between atoms: _100  and  _103
REMARK   44  A    between atoms: _103  and  _104
REMARK   45  A    between atoms: _104  and  _105
REMARK   46  A    between atoms: _110  and  _112
REMARK   47  A    between atoms: _112  and  _113
REMARK   48  A    between atoms: _112  and  _115
REMARK   49  A    between atoms: _118  and  _120
REMARK   50  A    between atoms: _120  and  _121
REMARK   51  A    between atoms: _120  and  _123
REMARK   52  A    between atoms: _123  and  _124
REMARK   53  A    between atoms: _127  and  _129
REMARK   54  A    between atoms: _129  and  _130
REMARK   55  A    between atoms: _129  and  _132
REMARK   56  A    between atoms: _132  and  _133
REMARK   57  A    between atoms: _133  and  _134
REMARK   58  A    between atoms: _137  and  _139
REMARK   59  A    between atoms: _139  and  _140
REMARK   60  A    between atoms: _139  and  _142
REMARK   61  A    between atoms: _142  and  _143
REMARK   62  A    between atoms: _146  and  _148
REMARK   63  A    between atoms: _148  and  _149
REMARK   64  A    between atoms: _148  and  _151
REMARK   65  A    between atoms: _151  and  _152
REMARK   66  A    between atoms: _155  and  _157
REMARK   67  A    between atoms: _157  and  _158
REMARK   68  A    between atoms: _157  and  _160
REMARK   69  A    between atoms: _160  and  _161
REMARK   70  A    between atoms: _166  and  _168
REMARK   71  A    between atoms: _168  and  _169
REMARK   72  A    between atoms: _172  and  _174
REMARK   73  A    between atoms: _174  and  _175
REMARK   74  A    between atoms: _174  and  _177
REMARK   75  A    between atoms: _177  and  _178
REMARK   76  A    between atoms: _181  and  _183
REMARK   77  A    between atoms: _183  and  _184
REMARK   78  A    between atoms: _183  and  _186
REMARK   79  A    between atoms: _189  and  _191
REMARK   80  A    between atoms: _191  and  _192
REMARK   81  A    between atoms: _191  and  _194
REMARK   82  A    between atoms: _194  and  _195
REMARK   83  A    between atoms: _195  and  _196
REMARK   84  A    between atoms: _196  and  _197
REMARK   85  A    between atoms: _206  and  _208
REMARK   86  A    between atoms: _208  and  _209
REMARK   87  A    between atoms: _208  and  _211
REMARK   88  A    between atoms: _211  and  _212
REMARK   89  A    between atoms: _215  and  _217
REMARK   90  A    between atoms: _217  and  _218
REMARK   91  A    between atoms: _217  and  _220
REMARK   92  A    between atoms: _220  and  _221
REMARK   93  A    between atoms: _224  and  _226
REMARK   94  A    between atoms: _226  and  _227
REMARK   95  A    between atoms: _226  and  _229
REMARK   96  A    between atoms: _229  and  _230
REMARK   97  A    between atoms: _230  and  _231
REMARK   98  A    between atoms: _236  and  _238
REMARK   99  A    between atoms: _238  and  _239
REMARK  100  A    between atoms: _238  and  _241
REMARK  101  A    between atoms: _244  and  _246
REMARK  102  A    between atoms: _246  and  _247
REMARK  103  A    between atoms: _246  and  _249
REMARK  104  A    between atoms: _249  and  _250
REMARK  105  A    between atoms: _253  and  _255
REMARK  106  A    between atoms: _255  and  _256
REMARK  107  A    between atoms: _255  and  _258
REMARK  108  A    between atoms: _258  and  _259
REMARK  109  A    between atoms: _259  and  _260
REMARK  110  A    between atoms: _263  and  _265
REMARK  111  A    between atoms: _265  and  _266
REMARK  112  A    between atoms: _265  and  _268
REMARK  113  A    between atoms: _268  and  _269
REMARK  114  A    between atoms: _272  and  _274
REMARK  115  A    between atoms: _274  and  _275
REMARK  116  A    between atoms: _274  and  _277
REMARK  117  A    between atoms: _277  and  _278
REMARK  118  A    between atoms: _281  and  _283
REMARK  119  A    between atoms: _283  and  _284
REMARK  120  A    between atoms: _283  and  _286
REMARK  121  A    between atoms: _286  and  _287
REMARK  122  A    between atoms: _292  and  _294
REMARK  123  A    between atoms: _294  and  _295
REMARK  124  A    between atoms: _298  and  _300
REMARK  125  A    between atoms: _300  and  _301
REMARK  126  A    between atoms: _300  and  _303
REMARK  127  A    between atoms: _303  and  _304
REMARK  128  A    between atoms: _307  and  _309
REMARK  129  A    between atoms: _309  and  _310
REMARK  130  A    between atoms: _309  and  _312
REMARK  131  A    between atoms: _315  and  _317
REMARK  132  A    between atoms: _317  and  _318
REMARK  133  A    between atoms: _317  and  _320
REMARK  134  A    between atoms: _320  and  _321
REMARK  135  A    between atoms: _321  and  _322
REMARK  136  A    between atoms: _322  and  _323
REMARK  137  A    between atoms: _332  and  _334
REMARK  138  A    between atoms: _334  and  _335
REMARK  139  A    between atoms: _334  and  _337
REMARK  140  A    between atoms: _337  and  _338
REMARK  141  A    between atoms: _341  and  _343
REMARK  142  A    between atoms: _343  and  _344
REMARK  143  A    between atoms: _343  and  _346
REMARK  144  A    between atoms: _346  and  _347
REMARK  145  A    between atoms: _350  and  _352
REMARK  146  A    between atoms: _352  and  _353
REMARK  147  A    between atoms: _352  and  _355
REMARK  148  A    between atoms: _355  and  _356
REMARK  149  A    between atoms: _356  and  _357
REMARK  150  A    between atoms: _357  and  _358
REMARK  151  A    between atoms: _367  and  _369
REMARK  152  A    between atoms: _369  and  _370
REMARK  153  A    between atoms: _369  and  _372
REMARK  154  A    between atoms: _372  and  _373
REMARK  155  A    between atoms: _373  and  _374
REMARK  156  A    between atoms: _379  and  _381
REMARK  157  A    between atoms: _381  and  _382
REMARK  158  A    between atoms: _381  and  _384
REMARK  159  A    between atoms: _387  and  _389
REMARK  160  A    between atoms: _389  and  _390
REMARK  161  A    between atoms: _389  and  _392
REMARK  162  A    between atoms: _392  and  _393
REMARK  163  A    between atoms: _396  and  _398
REMARK  164  A    between atoms: _398  and  _399
REMARK  165  A    between atoms: _398  and  _401
REMARK  166  A    between atoms: _401  and  _402
REMARK  167  A    between atoms: _402  and  _403
REMARK  168  A    between atoms: _406  and  _408
REMARK  169  A    between atoms: _408  and  _409
REMARK  170  A    between atoms: _408  and  _411
REMARK  171  A    between atoms: _411  and  _412
REMARK  172  A    between atoms: _415  and  _417
REMARK  173  A    between atoms: _417  and  _418
REMARK  174  A    between atoms: _417  and  _420
REMARK  175  A    between atoms: _420  and  _421
REMARK  176  A    between atoms: _424  and  _426
REMARK  177  A    between atoms: _426  and  _427
REMARK  178  A    between atoms: _426  and  _429
REMARK  179  A    between atoms: _429  and  _430
REMARK  180  A    between atoms: _435  and  _437
REMARK  181  A    between atoms: _437  and  _438
REMARK  182  A    between atoms: _441  and  _443
REMARK  183  A    between atoms: _443  and  _444
REMARK  184  A    between atoms: _443  and  _446
REMARK  185  A    between atoms: _446  and  _447
REMARK  186  A    between atoms: _450  and  _452
REMARK  187  A    between atoms: _452  and  _453
REMARK  188  A    between atoms: _452  and  _455
REMARK  189  A    between atoms: _458  and  _460
REMARK  190  A    between atoms: _460  and  _461
REMARK  191  A    between atoms: _460  and  _463
REMARK  192  A    between atoms: _463  and  _464
REMARK  193  A    between atoms: _464  and  _465
REMARK  194  A    between atoms: _465  and  _466
REMARK  195  A    between atoms: _475  and  _477
REMARK  196  A    between atoms: _477  and  _478
REMARK  197  A    between atoms: _477  and  _480
REMARK  198  A    between atoms: _480  and  _481
REMARK  199  A    between atoms: _484  and  _486
REMARK  200  A    between atoms: _486  and  _487
REMARK  201  A    between atoms: _486  and  _489
REMARK  202  A    between atoms: _489  and  _490
REMARK  203  A    between atoms: _493  and  _495
REMARK  204  A    between atoms: _495  and  _496
REMARK  205  A    between atoms: _495  and  _498
REMARK  206  A    between atoms: _498  and  _499
REMARK  207  A    between atoms: _499  and  _500
REMARK  208  A    between atoms: _505  and  _507
REMARK  209  A    between atoms: _507  and  _508
REMARK  210  A    between atoms: _507  and  _510
REMARK  211  A    between atoms: _513  and  _515
REMARK  212  A    between atoms: _515  and  _516
REMARK  213  A    between atoms: _515  and  _518
REMARK  214  A    between atoms: _518  and  _519
REMARK  215  A    between atoms: _522  and  _524
REMARK  216  A    between atoms: _524  and  _525
REMARK  217  A    between atoms: _524  and  _527
REMARK  218  A    between atoms: _527  and  _528
REMARK  219  A    between atoms: _528  and  _529
REMARK  220  A    between atoms: _532  and  _534
REMARK  221  A    between atoms: _534  and  _535
REMARK  222  A    between atoms: _534  and  _537
REMARK  223  A    between atoms: _537  and  _538
REMARK  224  A    between atoms: _541  and  _543
REMARK  225  A    between atoms: _543  and  _544
REMARK  226  A    between atoms: _543  and  _546
REMARK  227  A    between atoms: _546  and  _547
REMARK  228  A    between atoms: _550  and  _552
REMARK  229  A    between atoms: _552  and  _553
REMARK  230  A    between atoms: _552  and  _555
REMARK  231  A    between atoms: _555  and  _556
REMARK  232  A    between atoms: _561  and  _563
REMARK  233  A    between atoms: _563  and  _564
REMARK  234  A    between atoms: _567  and  _569
REMARK  235  A    between atoms: _569  and  _570
REMARK  236  A    between atoms: _569  and  _572
REMARK  237  A    between atoms: _572  and  _573
REMARK  238  A    between atoms: _576  and  _578
REMARK  239  A    between atoms: _578  and  _579
REMARK  240  A    between atoms: _578  and  _581
REMARK  241  A    between atoms: _584  and  _586
REMARK  242  A    between atoms: _586  and  _587
REMARK  243  A    between atoms: _586  and  _589
REMARK  244  A    between atoms: _589  and  _590
REMARK  245  A    between atoms: _590  and  _591
REMARK  246  A    between atoms: _591  and  _592
REMARK  247  A    between atoms: _601  and  _603
REMARK  248  A    between atoms: _603  and  _604
REMARK  249  A    between atoms: _603  and  _606
REMARK  250  A    between atoms: _606  and  _607
REMARK  251  A    between atoms: _610  and  _612
REMARK  252  A    between atoms: _612  and  _613
REMARK  253  A    between atoms: _612  and  _615
REMARK  254  A    between atoms: _615  and  _616
REMARK  255  A    between atoms: _619  and  _621
REMARK  256  A    between atoms: _621  and  _622
REMARK  257  A    between atoms: _621  and  _624
REMARK  258  A    between atoms: _624  and  _625
REMARK  259  A    between atoms: _625  and  _626
REMARK  260  A    between atoms: _631  and  _633
REMARK  261  A    between atoms: _633  and  _634
REMARK  262  A    between atoms: _633  and  _636
REMARK  263  A    between atoms: _639  and  _641
REMARK  264  A    between atoms: _641  and  _642
REMARK  265  A    between atoms: _641  and  _644
REMARK  266  A    between atoms: _644  and  _645
REMARK                            x       y       z     vdW  Elec       q    Type
REMARK                         _______ _______ _______ _____ _____    ______ ____
ROOT
ATOM      1  CA  GLN A   1       2.885   0.956  19.047  0.00  0.00    +0.145 C 
ENDROOT
BRANCH   1   2
ATOM      2  C   GLN A   1       2.510  -0.403  19.613  0.00  0.00    +0.238 C 
ATOM      3  O   GLN A   1       1.550  -0.521  20.365  0.00  0.00    -0.274 OA
ATOM      4  N   VAL A   2       3.279  -1.420  19.252  0.00  0.00    -0.298 N 
ATOM      5  H   VAL A   2       4.077  -1.243  18.609  0.00  0.00    +0.150 HD
BRANCH   4   6
ATOM      6  CA  VAL A   2       3.046  -2.777  19.725  0.00  0.00    +0.137 C 
BRANCH   6   7
ATOM      7  CB  VAL A   2       4.145  -3.723  19.189  0.00  0.00    +0.026 C 
ATOM      8  CG2 VAL A   2       4.068  -5.075  19.880  0.00  0.00    +0.002 C 
ATOM      9  CG1 VAL A   2       3.992  -3.881  17.680  0.00  0.00    +0.002 C 
ENDBRANCH   6   7
BRANCH   6  10
ATOM     10  C   VAL A   2       3.017  -2.823  21.256  0.00  0.00    +0.227 C 
ATOM     11  O   VAL A   2       2.187  -3.503  21.845  0.00  0.00    -0.286 OA
ENDBRANCH   6  10
ENDBRANCH   4   6
ENDBRANCH   1   2
BRANCH   1  12
ATOM     12  N   GLN A   1       4.314   1.208  19.198  0.00  0.00    -0.238 NA
ATOM     13  H   GLN A   1       4.887   1.425  18.357  0.00  0.00    +0.142 HD
ENDBRANCH   1  12
BRANCH   1  14
ATOM     14  CB  GLN A   1       2.472   1.050  17.571  0.00  0.00    +0.036 C 
BRANCH  14  15
ATOM     15  CG  GLN A   1       0.986   0.819  17.309  0.00  0.00    +0.087 C 
BRANCH  15  16
ATOM     16  CD  GLN A   1       0.551   1.247  15.907  0.00  0.00    +0.219 C 
ATOM     17  OE1 GLN A   1       0.124   2.389  15.696  0.00  0.00    -0.275 OA
ATOM     18  NE2 GLN A   1       0.670   0.338  14.944  0.00  0.00    -0.329 N 
ATOM     19 HE21 GLN A   1       1.034  -0.611  15.166  0.00  0.00    +0.145 HD
ATOM     20 HE22 GLN A   1       0.399   0.576  13.968  0.00  0.00    +0.145 HD
ENDBRANCH  15  16
ENDBRANCH  14  15
ENDBRANCH   1  14
TORSDOF 8
REMARK  Name = ../refined-set-2016/3v2q/3v2q_pocket.pdb
REMARK  266 active torsions:
REMARK  status: ('A' for Active; 'I' for Inactive)
REMARK    1  A    between atoms: _1  and  _3
REMARK    2  A    between atoms: _3  and  _4
REMARK    3  A    between atoms: _3  and  _6
REMARK    4  A    between atoms: _6  and  _7
REMARK    5  A    between atoms: _7  and  _8
REMARK    6  A    between atoms: _11  and  _13
REMARK    7  A    between atoms: _13  and  _14
REMARK    8  A    between atoms: _13  and  _16
REMARK    9  A    between atoms: _16  and  _17
REMARK   10  A    between atoms: _20  and  _22
REMARK   11  A    between atoms: _22  and  _23
REMARK   12  A    between atoms: _22  and  _25
REMARK   13  A    between atoms: _25  and  _26
REMARK   14  A    between atoms: _29  and  _31
REMARK   15  A    between atoms: _31  and  _32
REMARK   16  A    between atoms: _31  and  _34
REMARK   17  A    between atoms: _34  and  _35
REMARK   18  A    between atoms: _40  and  _42
REMARK   19  A    between atoms: _42  and  _43
REMARK   20  A    between atoms: _46  and  _48
REMARK   21  A    between atoms: _48  and  _49
REMARK   22  A    between atoms: _48  and  _51
REMARK   23  A    between atoms: _51  and  _52
REMARK   24  A    between atoms: _55  and  _57
REMARK   25  A    between atoms: _57  and  _58
REMARK   26  A    between atoms: _57  and  _60
REMARK   27  A    between atoms: _63  and  _65
REMARK   28  A    between atoms: _65  and  _66
REMARK   29  A    between atoms: _65  and  _68
REMARK   30  A    between atoms: _68  and  _69
REMARK   31  A    between atoms: _69  and  _70
REMARK   32  A    between atoms: _70  and  _71
REMARK   33  A    between atoms: _80  and  _82
REMARK   34  A    between atoms: _82  and  _83
REMARK   35  A    between atoms: _82  and  _85
REMARK   36  A    between atoms: _85  and  _86
REMARK   37  A    between atoms: _89  and  _91
REMARK   38  A    between atoms: _91  and  _92
REMARK   39  A    between atoms: _91  and  _94
REMARK   40  A    between atoms: _94  and  _95
REMARK   41  A    between atoms: _98  and  _100
REMARK   42  A    between atoms: _100  and  _101
REMARK   43  A    between atoms: _100  and  _103
REMARK   44  A    between atoms: _103  and  _104
REMARK   45  A    between atoms: _104  and  _105
REMARK   46  A    between atoms: _110  and  _112
REMARK   47  A    between atoms: _112  and  _113
REMARK   48  A    between atoms: _112  and  _115
REMARK   49  A    between atoms: _118  and  _120
REMARK   50  A    between atoms: _120  and  _121
REMARK   51  A    between atoms: _120  and  _123
REMARK   52  A    between atoms: _123  and  _124
REMARK   53  A    between atoms: _127  and  _129
REMARK   54  A    between atoms: _129  and  _130
REMARK   55  A    between atoms: _129  and  _132
REMARK   56  A    between atoms: _132  and  _133
REMARK   57  A    between atoms: _133  and  _134
REMARK   58  A    between atoms: _137  and  _139
REMARK   59  A    between atoms: _139  and  _140
REMARK   60  A    between atoms: _139  and  _142
REMARK   61  A    between atoms: _142  and  _143
REMARK   62  A    between atoms: _146  and  _148
REMARK   63  A    between atoms: _148  and  _149
REMARK   64  A    between atoms: _148  and  _151
REMARK   65  A    between atoms: _151  and  _152
REMARK   66  A    between atoms: _155  and  _157
REMARK   67  A    between atoms: _157  and  _158
REMARK   68  A    between atoms: _157  and  _160
REMARK   69  A    between atoms: _160  and  _161
REMARK   70  A    between atoms: _166  and  _168
REMARK   71  A    between atoms: _168  and  _169
REMARK   72  A    between atoms: _172  and  _174
REMARK   73  A    between atoms: _174  and  _175
REMARK   74  A    between atoms: _174  and  _177
REMARK   75  A    between atoms: _177  and  _178
REMARK   76  A    between atoms: _181  and  _183
REMARK   77  A    between atoms: _183  and  _184
REMARK   78  A    between atoms: _183  and  _186
REMARK   79  A    between atoms: _189  and  _191
REMARK   80  A    between atoms: _191  and  _192
REMARK   81  A    between atoms: _191  and  _194
REMARK   82  A    between atoms: _194  and  _195
REMARK   83  A    between atoms: _195  and  _196
REMARK   84  A    between atoms: _196  and  _197
REMARK   85  A    between atoms: _206  and  _208
REMARK   86  A    between atoms: _208  and  _209
REMARK   87  A    between atoms: _208  and  _211
REMARK   88  A    between atoms: _211  and  _212
REMARK   89  A    between atoms: _215  and  _217
REMARK   90  A    between atoms: _217  and  _218
REMARK   91  A    between atoms: _217  and  _220
REMARK   92  A    between atoms: _220  and  _221
REMARK   93  A    between atoms: _224  and  _226
REMARK   94  A    between atoms: _226  and  _227
REMARK   95  A    between atoms: _226  and  _229
REMARK   96  A    between atoms: _229  and  _230
REMARK   97  A    between atoms: _230  and  _231
REMARK   98  A    between atoms: _236  and  _238
REMARK   99  A    between atoms: _238  and  _239
REMARK  100  A    between atoms: _238  and  _241
REMARK  101  A    between atoms: _244  and  _246
REMARK  102  A    between atoms: _246  and  _247
REMARK  103  A    between atoms: _246  and  _249
REMARK  104  A    between atoms: _249  and  _250
REMARK  105  A    between atoms: _253  and  _255
REMARK  106  A    between atoms: _255  and  _256
REMARK  107  A    between atoms: _255  and  _258
REMARK  108  A    between atoms: _258  and  _259
REMARK  109  A    between atoms: _259  and  _260
REMARK  110  A    between atoms: _263  and  _265
REMARK  111  A    between atoms: _265  and  _266
REMARK  112  A    between atoms: _265  and  _268
REMARK  113  A    between atoms: _268  and  _269
REMARK  114  A    between atoms: _272  and  _274
REMARK  115  A    between atoms: _274  and  _275
REMARK  116  A    between atoms: _274  and  _277
REMARK  117  A    between atoms: _277  and  _278
REMARK  118  A    between atoms: _281  and  _283
REMARK  119  A    between atoms: _283  and  _284
REMARK  120  A    between atoms: _283  and  _286
REMARK  121  A    between atoms: _286  and  _287
REMARK  122  A    between atoms: _292  and  _294
REMARK  123  A    between atoms: _294  and  _295
REMARK  124  A    between atoms: _298  and  _300
REMARK  125  A    between atoms: _300  and  _301
REMARK  126  A    between atoms: _300  and  _303
REMARK  127  A    between atoms: _303  and  _304
REMARK  128  A    between atoms: _307  and  _309
REMARK  129  A    between atoms: _309  and  _310
REMARK  130  A    between atoms: _309  and  _312
REMARK  131  A    between atoms: _315  and  _317
REMARK  132  A    between atoms: _317  and  _318
REMARK  133  A    between atoms: _317  and  _320
REMARK  134  A    between atoms: _320  and  _321
REMARK  135  A    between atoms: _321  and  _322
REMARK  136  A    between atoms: _322  and  _323
REMARK  137  A    between atoms: _332  and  _334
REMARK  138  A    between atoms: _334  and  _335
REMARK  139  A    between atoms: _334  and  _337
REMARK  140  A    between atoms: _337  and  _338
REMARK  141  A    between atoms: _341  and  _343
REMARK  142  A    between atoms: _343  and  _344
REMARK  143  A    between atoms: _343  and  _346
REMARK  144  A    between atoms: _346  and  _347
REMARK  145  A    between atoms: _350  and  _352
REMARK  146  A    between atoms: _352  and  _353
REMARK  147  A    between atoms: _352  and  _355
REMARK  148  A    between atoms: _355  and  _356
REMARK  149  A    between atoms: _356  and  _357
REMARK  150  A    between atoms: _357  and  _358
REMARK  151  A    between atoms: _367  and  _369
REMARK  152  A    between atoms: _369  and  _370
REMARK  153  A    between atoms: _369  and  _372
REMARK  154  A    between atoms: _372  and  _373
REMARK  155  A    between atoms: _373  and  _374
REMARK  156  A    between atoms: _379  and  _381
REMARK  157  A    between atoms: _381  and  _382
REMARK  158  A    between atoms: _381  and  _384
REMARK  159  A    between atoms: _387  and  _389
REMARK  160  A    between atoms: _389  and  _390
REMARK  161  A    between atoms: _389  and  _392
REMARK  162  A    between atoms: _392  and  _393
REMARK  163  A    between atoms: _396  and  _398
REMARK  164  A    between atoms: _398  and  _399
REMARK  165  A    between atoms: _398  and  _401
REMARK  166  A    between atoms: _401  and  _402
REMARK  167  A    between atoms: _402  and  _403
REMARK  168  A    between atoms: _406  and  _408
REMARK  169  A    between atoms: _408  and  _409
REMARK  170  A    between atoms: _408  and  _411
REMARK  171  A    between atoms: _411  and  _412
REMARK  172  A    between atoms: _415  and  _417
REMARK  173  A    between atoms: _417  and  _418
REMARK  174  A    between atoms: _417  and  _420
REMARK  175  A    between atoms: _420  and  _421
REMARK  176  A    between atoms: _424  and  _426
REMARK  177  A    between atoms: _426  and  _427
REMARK  178  A    between atoms: _426  and  _429
REMARK  179  A    between atoms: _429  and  _430
REMARK  180  A    between atoms: _435  and  _437
REMARK  181  A    between atoms: _437  and  _438
REMARK  182  A    between atoms: _441  and  _443
REMARK  183  A    between atoms: _443  and  _444
REMARK  184  A    between atoms: _443  and  _446
REMARK  185  A    between atoms: _446  and  _447
REMARK  186  A    between atoms: _450  and  _452
REMARK  187  A    between atoms: _452  and  _453
REMARK  188  A    between atoms: _452  and  _455
REMARK  189  A    between atoms: _458  and  _460
REMARK  190  A    between atoms: _460  and  _461
REMARK  191  A    between atoms: _460  and  _463
REMARK  192  A    between atoms: _463  and  _464
REMARK  193  A    between atoms: _464  and  _465
REMARK  194  A    between atoms: _465  and  _466
REMARK  195  A    between atoms: _475  and  _477
REMARK  196  A    between atoms: _477  and  _478
REMARK  197  A    between atoms: _477  and  _480
REMARK  198  A    between atoms: _480  and  _481
REMARK  199  A    between atoms: _484  and  _486
REMARK  200  A    between atoms: _486  and  _487
REMARK  201  A    between atoms: _486  and  _489
REMARK  202  A    between atoms: _489  and  _490
REMARK  203  A    between atoms: _493  and  _495
REMARK  204  A    between atoms: _495  and  _496
REMARK  205  A    between atoms: _495  and  _498
REMARK  206  A    between atoms: _498  and  _499
REMARK  207  A    between atoms: _499  and  _500
REMARK  208  A    between atoms: _505  and  _507
REMARK  209  A    between atoms: _507  and  _508
REMARK  210  A    between atoms: _507  and  _510
REMARK  211  A    between atoms: _513  and  _515
REMARK  212  A    between atoms: _515  and  _516
REMARK  213  A    between atoms: _515  and  _518
REMARK  214  A    between atoms: _518  and  _519
REMARK  215  A    between atoms: _522  and  _524
REMARK  216  A    between atoms: _524  and  _525
REMARK  217  A    between atoms: _524  and  _527
REMARK  218  A    between atoms: _527  and  _528
REMARK  219  A    between atoms: _528  and  _529
REMARK  220  A    between atoms: _532  and  _534
REMARK  221  A    between atoms: _534  and  _535
REMARK  222  A    between atoms: _534  and  _537
REMARK  223  A    between atoms: _537  and  _538
REMARK  224  A    between atoms: _541  and  _543
REMARK  225  A    between atoms: _543  and  _544
REMARK  226  A    between atoms: _543  and  _546
REMARK  227  A    between atoms: _546  and  _547
REMARK  228  A    between atoms: _550  and  _552
REMARK  229  A    between atoms: _552  and  _553
REMARK  230  A    between atoms: _552  and  _555
REMARK  231  A    between atoms: _555  and  _556
REMARK  232  A    between atoms: _561  and  _563
REMARK  233  A    between atoms: _563  and  _564
REMARK  234  A    between atoms: _567  and  _569
REMARK  235  A    between atoms: _569  and  _570
REMARK  236  A    between atoms: _569  and  _572
REMARK  237  A    between atoms: _572  and  _573
REMARK  238  A    between atoms: _576  and  _578
REMARK  239  A    between atoms: _578  and  _579
REMARK  240  A    between atoms: _578  and  _581
REMARK  241  A    between atoms: _584  and  _586
REMARK  242  A    between atoms: _586  and  _587
REMARK  243  A    between atoms: _586  and  _589
REMARK  244  A    between atoms: _589  and  _590
REMARK  245  A    between atoms: _590  and  _591
REMARK  246  A    between atoms: _591  and  _592
REMARK  247  A    between atoms: _601  and  _603
REMARK  248  A    between atoms: _603  and  _604
REMARK  249  A    between atoms: _603  and  _606
REMARK  250  A    between atoms: _606  and  _607
REMARK  251  A    between atoms: _610  and  _612
REMARK  252  A    between atoms: _612  and  _613
REMARK  253  A    between atoms: _612  and  _615
REMARK  254  A    between atoms: _615  and  _616
REMARK  255  A    between atoms: _619  and  _621
REMARK  256  A    between atoms: _621  and  _622
REMARK  257  A    between atoms: _621  and  _624
REMARK  258  A    between atoms: _624  and  _625
REMARK  259  A    between atoms: _625  and  _626
REMARK  260  A    between atoms: _631  and  _633
REMARK  261  A    between atoms: _633  and  _634
REMARK  262  A    between atoms: _633  and  _636
REMARK  263  A    between atoms: _639  and  _641
REMARK  264  A    between atoms: _641  and  _642
REMARK  265  A    between atoms: _641  and  _644
REMARK  266  A    between atoms: _644  and  _645
REMARK                            x       y       z     vdW  Elec       q    Type
REMARK                         _______ _______ _______ _____ _____    ______ ____
ROOT
ATOM      1  CA  ILE A   1      -1.249  -2.298  22.292  0.00  0.00    +0.133 C 
ENDROOT
BRANCH   1   2
ATOM      2  N   ILE A   1      -0.169  -1.351  22.540  0.00  0.00    -0.239 NA
ATOM      3  H   ILE A   1       0.592  -1.243  21.840  0.00  0.00    +0.142 HD
ENDBRANCH   1   2
BRANCH   1   4
ATOM      4  C   ILE A   1      -1.199  -3.480  23.262  0.00  0.00    +0.224 C 
ATOM      5  O   ILE A   1      -2.224  -3.884  23.806  0.00  0.00    -0.287 OA
ENDBRANCH   1   4
BRANCH   1   6
ATOM      6  CB  ILE A   1      -1.204  -2.829  20.843  0.00  0.00    +0.023 C 
ATOM      7  CG2 ILE A   1      -2.059  -4.078  20.716  0.00  0.00    +0.002 C 
BRANCH   6   8
ATOM      8  CG1 ILE A   1      -1.679  -1.734  19.886  0.00  0.00    +0.002 C 
ATOM      9  CD1 ILE A   1      -1.555  -2.086  18.423  0.00  0.00    +0.000 C 
ENDBRANCH   6   8
ENDBRANCH   1   6
TORSDOF 4
REMARK  Name = ../refined-set-2016/3v2q/3v2q_pocket.pdb
REMARK  266 active torsions:
REMARK  status: ('A' for Active; 'I' for Inactive)
REMARK    1  A    between atoms: _1  and  _3
REMARK    2  A    between atoms: _3  and  _4
REMARK    3  A    between atoms: _3  and  _6
REMARK    4  A    between atoms: _6  and  _7
REMARK    5  A    between atoms: _7  and  _8
REMARK    6  A    between atoms: _11  and  _13
REMARK    7  A    between atoms: _13  and  _14
REMARK    8  A    between atoms: _13  and  _16
REMARK    9  A    between atoms: _16  and  _17
REMARK   10  A    between atoms: _20  and  _22
REMARK   11  A    between atoms: _22  and  _23
REMARK   12  A    between atoms: _22  and  _25
REMARK   13  A    between atoms: _25  and  _26
REMARK   14  A    between atoms: _29  and  _31
REMARK   15  A    between atoms: _31  and  _32
REMARK   16  A    between atoms: _31  and  _34
REMARK   17  A    between atoms: _34  and  _35
REMARK   18  A    between atoms: _40  and  _42
REMARK   19  A    between atoms: _42  and  _43
REMARK   20  A    between atoms: _46  and  _48
REMARK   21  A    between atoms: _48  and  _49
REMARK   22  A    between atoms: _48  and  _51
REMARK   23  A    between atoms: _51  and  _52
REMARK   24  A    between atoms: _55  and  _57
REMARK   25  A    between atoms: _57  and  _58
REMARK   26  A    between atoms: _57  and  _60
REMARK   27  A    between atoms: _63  and  _65
REMARK   28  A    between atoms: _65  and  _66
REMARK   29  A    between atoms: _65  and  _68
REMARK   30  A    between atoms: _68  and  _69
REMARK   31  A    between atoms: _69  and  _70
REMARK   32  A    between atoms: _70  and  _71
REMARK   33  A    between atoms: _80  and  _82
REMARK   34  A    between atoms: _82  and  _83
REMARK   35  A    between atoms: _82  and  _85
REMARK   36  A    between atoms: _85  and  _86
REMARK   37  A    between atoms: _89  and  _91
REMARK   38  A    between atoms: _91  and  _92
REMARK   39  A    between atoms: _91  and  _94
REMARK   40  A    between atoms: _94  and  _95
REMARK   41  A    between atoms: _98  and  _100
REMARK   42  A    between atoms: _100  and  _101
REMARK   43  A    between atoms: _100  and  _103
REMARK   44  A    between atoms: _103  and  _104
REMARK   45  A    between atoms: _104  and  _105
REMARK   46  A    between atoms: _110  and  _112
REMARK   47  A    between atoms: _112  and  _113
REMARK   48  A    between atoms: _112  and  _115
REMARK   49  A    between atoms: _118  and  _120
REMARK   50  A    between atoms: _120  and  _121
REMARK   51  A    between atoms: _120  and  _123
REMARK   52  A    between atoms: _123  and  _124
REMARK   53  A    between atoms: _127  and  _129
REMARK   54  A    between atoms: _129  and  _130
REMARK   55  A    between atoms: _129  and  _132
REMARK   56  A    between atoms: _132  and  _133
REMARK   57  A    between atoms: _133  and  _134
REMARK   58  A    between atoms: _137  and  _139
REMARK   59  A    between atoms: _139  and  _140
REMARK   60  A    between atoms: _139  and  _142
REMARK   61  A    between atoms: _142  and  _143
REMARK   62  A    between atoms: _146  and  _148
REMARK   63  A    between atoms: _148  and  _149
REMARK   64  A    between atoms: _148  and  _151
REMARK   65  A    between atoms: _151  and  _152
REMARK   66  A    between atoms: _155  and  _157
REMARK   67  A    between atoms: _157  and  _158
REMARK   68  A    between atoms: _157  and  _160
REMARK   69  A    between atoms: _160  and  _161
REMARK   70  A    between atoms: _166  and  _168
REMARK   71  A    between atoms: _168  and  _169
REMARK   72  A    between atoms: _172  and  _174
REMARK   73  A    between atoms: _174  and  _175
REMARK   74  A    between atoms: _174  and  _177
REMARK   75  A    between atoms: _177  and  _178
REMARK   76  A    between atoms: _181  and  _183
REMARK   77  A    between atoms: _183  and  _184
REMARK   78  A    between atoms: _183  and  _186
REMARK   79  A    between atoms: _189  and  _191
REMARK   80  A    between atoms: _191  and  _192
REMARK   81  A    between atoms: _191  and  _194
REMARK   82  A    between atoms: _194  and  _195
REMARK   83  A    between atoms: _195  and  _196
REMARK   84  A    between atoms: _196  and  _197
REMARK   85  A    between atoms: _206  and  _208
REMARK   86  A    between atoms: _208  and  _209
REMARK   87  A    between atoms: _208  and  _211
REMARK   88  A    between atoms: _211  and  _212
REMARK   89  A    between atoms: _215  and  _217
REMARK   90  A    between atoms: _217  and  _218
REMARK   91  A    between atoms: _217  and  _220
REMARK   92  A    between atoms: _220  and  _221
REMARK   93  A    between atoms: _224  and  _226
REMARK   94  A    between atoms: _226  and  _227
REMARK   95  A    between atoms: _226  and  _229
REMARK   96  A    between atoms: _229  and  _230
REMARK   97  A    between atoms: _230  and  _231
REMARK   98  A    between atoms: _236  and  _238
REMARK   99  A    between atoms: _238  and  _239
REMARK  100  A    between atoms: _238  and  _241
REMARK  101  A    between atoms: _244  and  _246
REMARK  102  A    between atoms: _246  and  _247
REMARK  103  A    between atoms: _246  and  _249
REMARK  104  A    between atoms: _249  and  _250
REMARK  105  A    between atoms: _253  and  _255
REMARK  106  A    between atoms: _255  and  _256
REMARK  107  A    between atoms: _255  and  _258
REMARK  108  A    between atoms: _258  and  _259
REMARK  109  A    between atoms: _259  and  _260
REMARK  110  A    between atoms: _263  and  _265
REMARK  111  A    between atoms: _265  and  _266
REMARK  112  A    between atoms: _265  and  _268
REMARK  113  A    between atoms: _268  and  _269
REMARK  114  A    between atoms: _272  and  _274
REMARK  115  A    between atoms: _274  and  _275
REMARK  116  A    between atoms: _274  and  _277
REMARK  117  A    between atoms: _277  and  _278
REMARK  118  A    between atoms: _281  and  _283
REMARK  119  A    between atoms: _283  and  _284
REMARK  120  A    between atoms: _283  and  _286
REMARK  121  A    between atoms: _286  and  _287
REMARK  122  A    between atoms: _292  and  _294
REMARK  123  A    between atoms: _294  and  _295
REMARK  124  A    between atoms: _298  and  _300
REMARK  125  A    between atoms: _300  and  _301
REMARK  126  A    between atoms: _300  and  _303
REMARK  127  A    between atoms: _303  and  _304
REMARK  128  A    between atoms: _307  and  _309
REMARK  129  A    between atoms: _309  and  _310
REMARK  130  A    between atoms: _309  and  _312
REMARK  131  A    between atoms: _315  and  _317
REMARK  132  A    between atoms: _317  and  _318
REMARK  133  A    between atoms: _317  and  _320
REMARK  134  A    between atoms: _320  and  _321
REMARK  135  A    between atoms: _321  and  _322
REMARK  136  A    between atoms: _322  and  _323
REMARK  137  A    between atoms: _332  and  _334
REMARK  138  A    between atoms: _334  and  _335
REMARK  139  A    between atoms: _334  and  _337
REMARK  140  A    between atoms: _337  and  _338
REMARK  141  A    between atoms: _341  and  _343
REMARK  142  A    between atoms: _343  and  _344
REMARK  143  A    between atoms: _343  and  _346
REMARK  144  A    between atoms: _346  and  _347
REMARK  145  A    between atoms: _350  and  _352
REMARK  146  A    between atoms: _352  and  _353
REMARK  147  A    between atoms: _352  and  _355
REMARK  148  A    between atoms: _355  and  _356
REMARK  149  A    between atoms: _356  and  _357
REMARK  150  A    between atoms: _357  and  _358
REMARK  151  A    between atoms: _367  and  _369
REMARK  152  A    between atoms: _369  and  _370
REMARK  153  A    between atoms: _369  and  _372
REMARK  154  A    between atoms: _372  and  _373
REMARK  155  A    between atoms: _373  and  _374
REMARK  156  A    between atoms: _379  and  _381
REMARK  157  A    between atoms: _381  and  _382
REMARK  158  A    between atoms: _381  and  _384
REMARK  159  A    between atoms: _387  and  _389
REMARK  160  A    between atoms: _389  and  _390
REMARK  161  A    between atoms: _389  and  _392
REMARK  162  A    between atoms: _392  and  _393
REMARK  163  A    between atoms: _396  and  _398
REMARK  164  A    between atoms: _398  and  _399
REMARK  165  A    between atoms: _398  and  _401
REMARK  166  A    between atoms: _401  and  _402
REMARK  167  A    between atoms: _402  and  _403
REMARK  168  A    between atoms: _406  and  _408
REMARK  169  A    between atoms: _408  and  _409
REMARK  170  A    between atoms: _408  and  _411
REMARK  171  A    between atoms: _411  and  _412
REMARK  172  A    between atoms: _415  and  _417
REMARK  173  A    between atoms: _417  and  _418
REMARK  174  A    between atoms: _417  and  _420
REMARK  175  A    between atoms: _420  and  _421
REMARK  176  A    between atoms: _424  and  _426
REMARK  177  A    between atoms: _426  and  _427
REMARK  178  A    between atoms: _426  and  _429
REMARK  179  A    between atoms: _429  and  _430
REMARK  180  A    between atoms: _435  and  _437
REMARK  181  A    between atoms: _437  and  _438
REMARK  182  A    between atoms: _441  and  _443
REMARK  183  A    between atoms: _443  and  _444
REMARK  184  A    between atoms: _443  and  _446
REMARK  185  A    between atoms: _446  and  _447
REMARK  186  A    between atoms: _450  and  _452
REMARK  187  A    between atoms: _452  and  _453
REMARK  188  A    between atoms: _452  and  _455
REMARK  189  A    between atoms: _458  and  _460
REMARK  190  A    between atoms: _460  and  _461
REMARK  191  A    between atoms: _460  and  _463
REMARK  192  A    between atoms: _463  and  _464
REMARK  193  A    between atoms: _464  and  _465
REMARK  194  A    between atoms: _465  and  _466
REMARK  195  A    between atoms: _475  and  _477
REMARK  196  A    between atoms: _477  and  _478
REMARK  197  A    between atoms: _477  and  _480
REMARK  198  A    between atoms: _480  and  _481
REMARK  199  A    between atoms: _484  and  _486
REMARK  200  A    between atoms: _486  and  _487
REMARK  201  A    between atoms: _486  and  _489
REMARK  202  A    between atoms: _489  and  _490
REMARK  203  A    between atoms: _493  and  _495
REMARK  204  A    between atoms: _495  and  _496
REMARK  205  A    between atoms: _495  and  _498
REMARK  206  A    between atoms: _498  and  _499
REMARK  207  A    between atoms: _499  and  _500
REMARK  208  A    between atoms: _505  and  _507
REMARK  209  A    between atoms: _507  and  _508
REMARK  210  A    between atoms: _507  and  _510
REMARK  211  A    between atoms: _513  and  _515
REMARK  212  A    between atoms: _515  and  _516
REMARK  213  A    between atoms: _515  and  _518
REMARK  214  A    between atoms: _518  and  _519
REMARK  215  A    between atoms: _522  and  _524
REMARK  216  A    between atoms: _524  and  _525
REMARK  217  A    between atoms: _524  and  _527
REMARK  218  A    between atoms: _527  and  _528
REMARK  219  A    between atoms: _528  and  _529
REMARK  220  A    between atoms: _532  and  _534
REMARK  221  A    between atoms: _534  and  _535
REMARK  222  A    between atoms: _534  and  _537
REMARK  223  A    between atoms: _537  and  _538
REMARK  224  A    between atoms: _541  and  _543
REMARK  225  A    between atoms: _543  and  _544
REMARK  226  A    between atoms: _543  and  _546
REMARK  227  A    between atoms: _546  and  _547
REMARK  228  A    between atoms: _550  and  _552
REMARK  229  A    between atoms: _552  and  _553
REMARK  230  A    between atoms: _552  and  _555
REMARK  231  A    between atoms: _555  and  _556
REMARK  232  A    between atoms: _561  and  _563
REMARK  233  A    between atoms: _563  and  _564
REMARK  234  A    between atoms: _567  and  _569
REMARK  235  A    between atoms: _569  and  _570
REMARK  236  A    between atoms: _569  and  _572
REMARK  237  A    between atoms: _572  and  _573
REMARK  238  A    between atoms: _576  and  _578
REMARK  239  A    between atoms: _578  and  _579
REMARK  240  A    between atoms: _578  and  _581
REMARK  241  A    between atoms: _584  and  _586
REMARK  242  A    between atoms: _586  and  _587
REMARK  243  A    between atoms: _586  and  _589
REMARK  244  A    between atoms: _589  and  _590
REMARK  245  A    between atoms: _590  and  _591
REMARK  246  A    between atoms: _591  and  _592
REMARK  247  A    between atoms: _601  and  _603
REMARK  248  A    between atoms: _603  and  _604
REMARK  249  A    between atoms: _603  and  _606
REMARK  250  A    between atoms: _606  and  _607
REMARK  251  A    between atoms: _610  and  _612
REMARK  252  A    between atoms: _612  and  _613
REMARK  253  A    between atoms: _612  and  _615
REMARK  254  A    between atoms: _615  and  _616
REMARK  255  A    between atoms: _619  and  _621
REMARK  256  A    between atoms: _621  and  _622
REMARK  257  A    between atoms: _621  and  _624
REMARK  258  A    between atoms: _624  and  _625
REMARK  259  A    between atoms: _625  and  _626
REMARK  260  A    between atoms: _631  and  _633
REMARK  261  A    between atoms: _633  and  _634
REMARK  262  A    between atoms: _633  and  _636
REMARK  263  A    between atoms: _639  and  _641
REMARK  264  A    between atoms: _641  and  _642
REMARK  265  A    between atoms: _641  and  _644
REMARK  266  A    between atoms: _644  and  _645
REMARK                            x       y       z     vdW  Elec       q    Type
REMARK                         _______ _______ _______ _____ _____    ______ ____
ROOT
ATOM      1  C   GLU A   1      19.974  -0.299   0.873  0.00  0.00    +0.238 C 
ATOM      2  O   GLU A   1      19.157  -0.468   1.771  0.00  0.00    -0.274 OA
ATOM      3  N   LEU A   2      19.894  -0.920  -0.297  0.00  0.00    -0.298 N 
ATOM      4  H   LEU A   2      20.604  -0.721  -1.030  0.00  0.00    +0.150 HD
ENDROOT
BRANCH   1   5
ATOM      5  CA  GLU A   1      21.143   0.658   1.059  0.00  0.00    +0.145 C 
BRANCH   5   6
ATOM      6  N   GLU A   1      22.350   0.005   0.581  0.00  0.00    -0.238 NA
ATOM      7  H   GLU A   1      22.830   0.370  -0.267  0.00  0.00    +0.142 HD
ENDBRANCH   5   6
BRANCH   5   8
ATOM      8  CB  GLU A   1      20.884   1.954   0.284  0.00  0.00    +0.038 C 
BRANCH   8   9
ATOM      9  CG  GLU A   1      21.922   3.047   0.514  0.00  0.00    +0.116 C 
BRANCH   9  10
ATOM     10  CD  GLU A   1      22.098   3.414   1.984  0.00  0.00    +0.365 C 
ATOM     11  OE2 GLU A   1      21.086   3.711   2.665  0.00  0.00    -0.246 OA
ATOM     12  OE1 GLU A   1      23.253   3.419   2.460  0.00  0.00    -0.246 OA
ENDBRANCH   9  10
ENDBRANCH   8   9
ENDBRANCH   5   8
ENDBRANCH   1   5
BRANCH   3  13
ATOM     13  CA  LEU A   2      18.825  -1.879  -0.574  0.00  0.00    +0.137 C 
BRANCH  13  14
ATOM     14  C   LEU A   2      18.847  -2.988   0.472  0.00  0.00    +0.227 C 
ATOM     15  O   LEU A   2      17.835  -3.276   1.095  0.00  0.00    -0.286 OA
ENDBRANCH  13  14
BRANCH  13  16
ATOM     16  CB  LEU A   2      18.990  -2.488  -1.967  0.00  0.00    +0.028 C 
BRANCH  16  17
ATOM     17  CG  LEU A   2      18.639  -1.602  -3.157  0.00  0.00    +0.002 C 
ATOM     18  CD2 LEU A   2      17.170  -1.156  -3.088  0.00  0.00    +0.000 C 
ATOM     19  CD1 LEU A   2      18.901  -2.380  -4.427  0.00  0.00    +0.000 C 
ENDBRANCH  16  17
ENDBRANCH  13  16
ENDBRANCH   3  13
TORSDOF 9
REMARK  Name = ../refined-set-2016/3v2q/3v2q_pocket.pdb
REMARK  266 active torsions:
REMARK  status: ('A' for Active; 'I' for Inactive)
REMARK    1  A    between atoms: _1  and  _3
REMARK    2  A    between atoms: _3  and  _4
REMARK    3  A    between atoms: _3  and  _6
REMARK    4  A    between atoms: _6  and  _7
REMARK    5  A    between atoms: _7  and  _8
REMARK    6  A    between atoms: _11  and  _13
REMARK    7  A    between atoms: _13  and  _14
REMARK    8  A    between atoms: _13  and  _16
REMARK    9  A    between atoms: _16  and  _17
REMARK   10  A    between atoms: _20  and  _22
REMARK   11  A    between atoms: _22  and  _23
REMARK   12  A    between atoms: _22  and  _25
REMARK   13  A    between atoms: _25  and  _26
REMARK   14  A    between atoms: _29  and  _31
REMARK   15  A    between atoms: _31  and  _32
REMARK   16  A    between atoms: _31  and  _34
REMARK   17  A    between atoms: _34  and  _35
REMARK   18  A    between atoms: _40  and  _42
REMARK   19  A    between atoms: _42  and  _43
REMARK   20  A    between atoms: _46  and  _48
REMARK   21  A    between atoms: _48  and  _49
REMARK   22  A    between atoms: _48  and  _51
REMARK   23  A    between atoms: _51  and  _52
REMARK   24  A    between atoms: _55  and  _57
REMARK   25  A    between atoms: _57  and  _58
REMARK   26  A    between atoms: _57  and  _60
REMARK   27  A    between atoms: _63  and  _65
REMARK   28  A    between atoms: _65  and  _66
REMARK   29  A    between atoms: _65  and  _68
REMARK   30  A    between atoms: _68  and  _69
REMARK   31  A    between atoms: _69  and  _70
REMARK   32  A    between atoms: _70  and  _71
REMARK   33  A    between atoms: _80  and  _82
REMARK   34  A    between atoms: _82  and  _83
REMARK   35  A    between atoms: _82  and  _85
REMARK   36  A    between atoms: _85  and  _86
REMARK   37  A    between atoms: _89  and  _91
REMARK   38  A    between atoms: _91  and  _92
REMARK   39  A    between atoms: _91  and  _94
REMARK   40  A    between atoms: _94  and  _95
REMARK   41  A    between atoms: _98  and  _100
REMARK   42  A    between atoms: _100  and  _101
REMARK   43  A    between atoms: _100  and  _103
REMARK   44  A    between atoms: _103  and  _104
REMARK   45  A    between atoms: _104  and  _105
REMARK   46  A    between atoms: _110  and  _112
REMARK   47  A    between atoms: _112  and  _113
REMARK   48  A    between atoms: _112  and  _115
REMARK   49  A    between atoms: _118  and  _120
REMARK   50  A    between atoms: _120  and  _121
REMARK   51  A    between atoms: _120  and  _123
REMARK   52  A    between atoms: _123  and  _124
REMARK   53  A    between atoms: _127  and  _129
REMARK   54  A    between atoms: _129  and  _130
REMARK   55  A    between atoms: _129  and  _132
REMARK   56  A    between atoms: _132  and  _133
REMARK   57  A    between atoms: _133  and  _134
REMARK   58  A    between atoms: _137  and  _139
REMARK   59  A    between atoms: _139  and  _140
REMARK   60  A    between atoms: _139  and  _142
REMARK   61  A    between atoms: _142  and  _143
REMARK   62  A    between atoms: _146  and  _148
REMARK   63  A    between atoms: _148  and  _149
REMARK   64  A    between atoms: _148  and  _151
REMARK   65  A    between atoms: _151  and  _152
REMARK   66  A    between atoms: _155  and  _157
REMARK   67  A    between atoms: _157  and  _158
REMARK   68  A    between atoms: _157  and  _160
REMARK   69  A    between atoms: _160  and  _161
REMARK   70  A    between atoms: _166  and  _168
REMARK   71  A    between atoms: _168  and  _169
REMARK   72  A    between atoms: _172  and  _174
REMARK   73  A    between atoms: _174  and  _175
REMARK   74  A    between atoms: _174  and  _177
REMARK   75  A    between atoms: _177  and  _178
REMARK   76  A    between atoms: _181  and  _183
REMARK   77  A    between atoms: _183  and  _184
REMARK   78  A    between atoms: _183  and  _186
REMARK   79  A    between atoms: _189  and  _191
REMARK   80  A    between atoms: _191  and  _192
REMARK   81  A    between atoms: _191  and  _194
REMARK   82  A    between atoms: _194  and  _195
REMARK   83  A    between atoms: _195  and  _196
REMARK   84  A    between atoms: _196  and  _197
REMARK   85  A    between atoms: _206  and  _208
REMARK   86  A    between atoms: _208  and  _209
REMARK   87  A    between atoms: _208  and  _211
REMARK   88  A    between atoms: _211  and  _212
REMARK   89  A    between atoms: _215  and  _217
REMARK   90  A    between atoms: _217  and  _218
REMARK   91  A    between atoms: _217  and  _220
REMARK   92  A    between atoms: _220  and  _221
REMARK   93  A    between atoms: _224  and  _226
REMARK   94  A    between atoms: _226  and  _227
REMARK   95  A    between atoms: _226  and  _229
REMARK   96  A    between atoms: _229  and  _230
REMARK   97  A    between atoms: _230  and  _231
REMARK   98  A    between atoms: _236  and  _238
REMARK   99  A    between atoms: _238  and  _239
REMARK  100  A    between atoms: _238  and  _241
REMARK  101  A    between atoms: _244  and  _246
REMARK  102  A    between atoms: _246  and  _247
REMARK  103  A    between atoms: _246  and  _249
REMARK  104  A    between atoms: _249  and  _250
REMARK  105  A    between atoms: _253  and  _255
REMARK  106  A    between atoms: _255  and  _256
REMARK  107  A    between atoms: _255  and  _258
REMARK  108  A    between atoms: _258  and  _259
REMARK  109  A    between atoms: _259  and  _260
REMARK  110  A    between atoms: _263  and  _265
REMARK  111  A    between atoms: _265  and  _266
REMARK  112  A    between atoms: _265  and  _268
REMARK  113  A    between atoms: _268  and  _269
REMARK  114  A    between atoms: _272  and  _274
REMARK  115  A    between atoms: _274  and  _275
REMARK  116  A    between atoms: _274  and  _277
REMARK  117  A    between atoms: _277  and  _278
REMARK  118  A    between atoms: _281  and  _283
REMARK  119  A    between atoms: _283  and  _284
REMARK  120  A    between atoms: _283  and  _286
REMARK  121  A    between atoms: _286  and  _287
REMARK  122  A    between atoms: _292  and  _294
REMARK  123  A    between atoms: _294  and  _295
REMARK  124  A    between atoms: _298  and  _300
REMARK  125  A    between atoms: _300  and  _301
REMARK  126  A    between atoms: _300  and  _303
REMARK  127  A    between atoms: _303  and  _304
REMARK  128  A    between atoms: _307  and  _309
REMARK  129  A    between atoms: _309  and  _310
REMARK  130  A    between atoms: _309  and  _312
REMARK  131  A    between atoms: _315  and  _317
REMARK  132  A    between atoms: _317  and  _318
REMARK  133  A    between atoms: _317  and  _320
REMARK  134  A    between atoms: _320  and  _321
REMARK  135  A    between atoms: _321  and  _322
REMARK  136  A    between atoms: _322  and  _323
REMARK  137  A    between atoms: _332  and  _334
REMARK  138  A    between atoms: _334  and  _335
REMARK  139  A    between atoms: _334  and  _337
REMARK  140  A    between atoms: _337  and  _338
REMARK  141  A    between atoms: _341  and  _343
REMARK  142  A    between atoms: _343  and  _344
REMARK  143  A    between atoms: _343  and  _346
REMARK  144  A    between atoms: _346  and  _347
REMARK  145  A    between atoms: _350  and  _352
REMARK  146  A    between atoms: _352  and  _353
REMARK  147  A    between atoms: _352  and  _355
REMARK  148  A    between atoms: _355  and  _356
REMARK  149  A    between atoms: _356  and  _357
REMARK  150  A    between atoms: _357  and  _358
REMARK  151  A    between atoms: _367  and  _369
REMARK  152  A    between atoms: _369  and  _370
REMARK  153  A    between atoms: _369  and  _372
REMARK  154  A    between atoms: _372  and  _373
REMARK  155  A    between atoms: _373  and  _374
REMARK  156  A    between atoms: _379  and  _381
REMARK  157  A    between atoms: _381  and  _382
REMARK  158  A    between atoms: _381  and  _384
REMARK  159  A    between atoms: _387  and  _389
REMARK  160  A    between atoms: _389  and  _390
REMARK  161  A    between atoms: _389  and  _392
REMARK  162  A    between atoms: _392  and  _393
REMARK  163  A    between atoms: _396  and  _398
REMARK  164  A    between atoms: _398  and  _399
REMARK  165  A    between atoms: _398  and  _401
REMARK  166  A    between atoms: _401  and  _402
REMARK  167  A    between atoms: _402  and  _403
REMARK  168  A    between atoms: _406  and  _408
REMARK  169  A    between atoms: _408  and  _409
REMARK  170  A    between atoms: _408  and  _411
REMARK  171  A    between atoms: _411  and  _412
REMARK  172  A    between atoms: _415  and  _417
REMARK  173  A    between atoms: _417  and  _418
REMARK  174  A    between atoms: _417  and  _420
REMARK  175  A    between atoms: _420  and  _421
REMARK  176  A    between atoms: _424  and  _426
REMARK  177  A    between atoms: _426  and  _427
REMARK  178  A    between atoms: _426  and  _429
REMARK  179  A    between atoms: _429  and  _430
REMARK  180  A    between atoms: _435  and  _437
REMARK  181  A    between atoms: _437  and  _438
REMARK  182  A    between atoms: _441  and  _443
REMARK  183  A    between atoms: _443  and  _444
REMARK  184  A    between atoms: _443  and  _446
REMARK  185  A    between atoms: _446  and  _447
REMARK  186  A    between atoms: _450  and  _452
REMARK  187  A    between atoms: _452  and  _453
REMARK  188  A    between atoms: _452  and  _455
REMARK  189  A    between atoms: _458  and  _460
REMARK  190  A    between atoms: _460  and  _461
REMARK  191  A    between atoms: _460  and  _463
REMARK  192  A    between atoms: _463  and  _464
REMARK  193  A    between atoms: _464  and  _465
REMARK  194  A    between atoms: _465  and  _466
REMARK  195  A    between atoms: _475  and  _477
REMARK  196  A    between atoms: _477  and  _478
REMARK  197  A    between atoms: _477  and  _480
REMARK  198  A    between atoms: _480  and  _481
REMARK  199  A    between atoms: _484  and  _486
REMARK  200  A    between atoms: _486  and  _487
REMARK  201  A    between atoms: _486  and  _489
REMARK  202  A    between atoms: _489  and  _490
REMARK  203  A    between atoms: _493  and  _495
REMARK  204  A    between atoms: _495  and  _496
REMARK  205  A    between atoms: _495  and  _498
REMARK  206  A    between atoms: _498  and  _499
REMARK  207  A    between atoms: _499  and  _500
REMARK  208  A    between atoms: _505  and  _507
REMARK  209  A    between atoms: _507  and  _508
REMARK  210  A    between atoms: _507  and  _510
REMARK  211  A    between atoms: _513  and  _515
REMARK  212  A    between atoms: _515  and  _516
REMARK  213  A    between atoms: _515  and  _518
REMARK  214  A    between atoms: _518  and  _519
REMARK  215  A    between atoms: _522  and  _524
REMARK  216  A    between atoms: _524  and  _525
REMARK  217  A    between atoms: _524  and  _527
REMARK  218  A    between atoms: _527  and  _528
REMARK  219  A    between atoms: _528  and  _529
REMARK  220  A    between atoms: _532  and  _534
REMARK  221  A    between atoms: _534  and  _535
REMARK  222  A    between atoms: _534  and  _537
REMARK  223  A    between atoms: _537  and  _538
REMARK  224  A    between atoms: _541  and  _543
REMARK  225  A    between atoms: _543  and  _544
REMARK  226  A    between atoms: _543  and  _546
REMARK  227  A    between atoms: _546  and  _547
REMARK  228  A    between atoms: _550  and  _552
REMARK  229  A    between atoms: _552  and  _553
REMARK  230  A    between atoms: _552  and  _555
REMARK  231  A    between atoms: _555  and  _556
REMARK  232  A    between atoms: _561  and  _563
REMARK  233  A    between atoms: _563  and  _564
REMARK  234  A    between atoms: _567  and  _569
REMARK  235  A    between atoms: _569  and  _570
REMARK  236  A    between atoms: _569  and  _572
REMARK  237  A    between atoms: _572  and  _573
REMARK  238  A    between atoms: _576  and  _578
REMARK  239  A    between atoms: _578  and  _579
REMARK  240  A    between atoms: _578  and  _581
REMARK  241  A    between atoms: _584  and  _586
REMARK  242  A    between atoms: _586  and  _587
REMARK  243  A    between atoms: _586  and  _589
REMARK  244  A    between atoms: _589  and  _590
REMARK  245  A    between atoms: _590  and  _591
REMARK  246  A    between atoms: _591  and  _592
REMARK  247  A    between atoms: _601  and  _603
REMARK  248  A    between atoms: _603  and  _604
REMARK  249  A    between atoms: _603  and  _606
REMARK  250  A    between atoms: _606  and  _607
REMARK  251  A    between atoms: _610  and  _612
REMARK  252  A    between atoms: _612  and  _613
REMARK  253  A    between atoms: _612  and  _615
REMARK  254  A    between atoms: _615  and  _616
REMARK  255  A    between atoms: _619  and  _621
REMARK  256  A    between atoms: _621  and  _622
REMARK  257  A    between atoms: _621  and  _624
REMARK  258  A    between atoms: _624  and  _625
REMARK  259  A    between atoms: _625  and  _626
REMARK  260  A    between atoms: _631  and  _633
REMARK  261  A    between atoms: _633  and  _634
REMARK  262  A    between atoms: _633  and  _636
REMARK  263  A    between atoms: _639  and  _641
REMARK  264  A    between atoms: _641  and  _642
REMARK  265  A    between atoms: _641  and  _644
REMARK  266  A    between atoms: _644  and  _645
REMARK                            x       y       z     vdW  Elec       q    Type
REMARK                         _______ _______ _______ _____ _____    ______ ____
ROOT
ATOM      1  C   THR A   1      15.234  -2.921   3.699  0.00  0.00    +0.241 C 
ATOM      2  O   THR A   1      14.273  -2.943   4.465  0.00  0.00    -0.274 OA
ATOM      3  N   ASN A   2      15.723  -4.016   3.130  0.00  0.00    -0.298 N 
ATOM      4  H   ASN A   2      16.547  -3.946   2.499  0.00  0.00    +0.150 HD
ENDROOT
BRANCH   1   5
ATOM      5  CA  THR A   1      15.938  -1.611   3.379  0.00  0.00    +0.172 C 
BRANCH   5   6
ATOM      6  N   THR A   1      17.391  -1.785   3.448  0.00  0.00    -0.236 NA
ATOM      7  H   THR A   1      17.974  -1.612   2.604  0.00  0.00    +0.142 HD
ENDBRANCH   5   6
BRANCH   5   8
ATOM      8  CB  THR A   1      15.469  -1.099   1.984  0.00  0.00    +0.135 C 
ATOM      9  CG2 THR A   1      13.941  -1.200   1.855  0.00  0.00    +0.034 C 
BRANCH   8  10
ATOM     10  OG1 THR A   1      15.843   0.278   1.829  0.00  0.00    -0.383 OA
ATOM     11  HG1 THR A   1      15.414   0.817   2.540  0.00  0.00    +0.210 HD
ENDBRANCH   8  10
ENDBRANCH   5   8
ENDBRANCH   1   5
BRANCH   3  12
ATOM     12  CA  ASN A   2      15.116  -5.314   3.382  0.00  0.00    +0.146 C 
BRANCH  12  13
ATOM     13  C   ASN A   2      15.227  -5.742   4.834  0.00  0.00    +0.227 C 
ATOM     14  O   ASN A   2      14.264  -6.250   5.400  0.00  0.00    -0.286 OA
ENDBRANCH  12  13
BRANCH  12  15
ATOM     15  CB  ASN A   2      15.723  -6.377   2.470  0.00  0.00    +0.112 C 
BRANCH  15  16
ATOM     16  CG  ASN A   2      15.270  -6.222   1.032  0.00  0.00    +0.222 C 
ATOM     17  OD1 ASN A   2      14.097  -5.961   0.769  0.00  0.00    -0.275 OA
ATOM     18  ND2 ASN A   2      16.193  -6.383   0.094  0.00  0.00    -0.329 N 
ATOM     19 HD21 ASN A   2      17.174  -6.603   0.362  0.00  0.00    +0.145 HD
ATOM     20 HD22 ASN A   2      15.936  -6.289  -0.909  0.00  0.00    +0.145 HD
ENDBRANCH  15  16
ENDBRANCH  12  15
ENDBRANCH   3  12
TORSDOF 8
REMARK  Name = ../refined-set-2016/3v2q/3v2q_pocket.pdb
REMARK  266 active torsions:
REMARK  status: ('A' for Active; 'I' for Inactive)
REMARK    1  A    between atoms: _1  and  _3
REMARK    2  A    between atoms: _3  and  _4
REMARK    3  A    between atoms: _3  and  _6
REMARK    4  A    between atoms: _6  and  _7
REMARK    5  A    between atoms: _7  and  _8
REMARK    6  A    between atoms: _11  and  _13
REMARK    7  A    between atoms: _13  and  _14
REMARK    8  A    between atoms: _13  and  _16
REMARK    9  A    between atoms: _16  and  _17
REMARK   10  A    between atoms: _20  and  _22
REMARK   11  A    between atoms: _22  and  _23
REMARK   12  A    between atoms: _22  and  _25
REMARK   13  A    between atoms: _25  and  _26
REMARK   14  A    between atoms: _29  and  _31
REMARK   15  A    between atoms: _31  and  _32
REMARK   16  A    between atoms: _31  and  _34
REMARK   17  A    between atoms: _34  and  _35
REMARK   18  A    between atoms: _40  and  _42
REMARK   19  A    between atoms: _42  and  _43
REMARK   20  A    between atoms: _46  and  _48
REMARK   21  A    between atoms: _48  and  _49
REMARK   22  A    between atoms: _48  and  _51
REMARK   23  A    between atoms: _51  and  _52
REMARK   24  A    between atoms: _55  and  _57
REMARK   25  A    between atoms: _57  and  _58
REMARK   26  A    between atoms: _57  and  _60
REMARK   27  A    between atoms: _63  and  _65
REMARK   28  A    between atoms: _65  and  _66
REMARK   29  A    between atoms: _65  and  _68
REMARK   30  A    between atoms: _68  and  _69
REMARK   31  A    between atoms: _69  and  _70
REMARK   32  A    between atoms: _70  and  _71
REMARK   33  A    between atoms: _80  and  _82
REMARK   34  A    between atoms: _82  and  _83
REMARK   35  A    between atoms: _82  and  _85
REMARK   36  A    between atoms: _85  and  _86
REMARK   37  A    between atoms: _89  and  _91
REMARK   38  A    between atoms: _91  and  _92
REMARK   39  A    between atoms: _91  and  _94
REMARK   40  A    between atoms: _94  and  _95
REMARK   41  A    between atoms: _98  and  _100
REMARK   42  A    between atoms: _100  and  _101
REMARK   43  A    between atoms: _100  and  _103
REMARK   44  A    between atoms: _103  and  _104
REMARK   45  A    between atoms: _104  and  _105
REMARK   46  A    between atoms: _110  and  _112
REMARK   47  A    between atoms: _112  and  _113
REMARK   48  A    between atoms: _112  and  _115
REMARK   49  A    between atoms: _118  and  _120
REMARK   50  A    between atoms: _120  and  _121
REMARK   51  A    between atoms: _120  and  _123
REMARK   52  A    between atoms: _123  and  _124
REMARK   53  A    between atoms: _127  and  _129
REMARK   54  A    between atoms: _129  and  _130
REMARK   55  A    between atoms: _129  and  _132
REMARK   56  A    between atoms: _132  and  _133
REMARK   57  A    between atoms: _133  and  _134
REMARK   58  A    between atoms: _137  and  _139
REMARK   59  A    between atoms: _139  and  _140
REMARK   60  A    between atoms: _139  and  _142
REMARK   61  A    between atoms: _142  and  _143
REMARK   62  A    between atoms: _146  and  _148
REMARK   63  A    between atoms: _148  and  _149
REMARK   64  A    between atoms: _148  and  _151
REMARK   65  A    between atoms: _151  and  _152
REMARK   66  A    between atoms: _155  and  _157
REMARK   67  A    between atoms: _157  and  _158
REMARK   68  A    between atoms: _157  and  _160
REMARK   69  A    between atoms: _160  and  _161
REMARK   70  A    between atoms: _166  and  _168
REMARK   71  A    between atoms: _168  and  _169
REMARK   72  A    between atoms: _172  and  _174
REMARK   73  A    between atoms: _174  and  _175
REMARK   74  A    between atoms: _174  and  _177
REMARK   75  A    between atoms: _177  and  _178
REMARK   76  A    between atoms: _181  and  _183
REMARK   77  A    between atoms: _183  and  _184
REMARK   78  A    between atoms: _183  and  _186
REMARK   79  A    between atoms: _189  and  _191
REMARK   80  A    between atoms: _191  and  _192
REMARK   81  A    between atoms: _191  and  _194
REMARK   82  A    between atoms: _194  and  _195
REMARK   83  A    between atoms: _195  and  _196
REMARK   84  A    between atoms: _196  and  _197
REMARK   85  A    between atoms: _206  and  _208
REMARK   86  A    between atoms: _208  and  _209
REMARK   87  A    between atoms: _208  and  _211
REMARK   88  A    between atoms: _211  and  _212
REMARK   89  A    between atoms: _215  and  _217
REMARK   90  A    between atoms: _217  and  _218
REMARK   91  A    between atoms: _217  and  _220
REMARK   92  A    between atoms: _220  and  _221
REMARK   93  A    between atoms: _224  and  _226
REMARK   94  A    between atoms: _226  and  _227
REMARK   95  A    between atoms: _226  and  _229
REMARK   96  A    between atoms: _229  and  _230
REMARK   97  A    between atoms: _230  and  _231
REMARK   98  A    between atoms: _236  and  _238
REMARK   99  A    between atoms: _238  and  _239
REMARK  100  A    between atoms: _238  and  _241
REMARK  101  A    between atoms: _244  and  _246
REMARK  102  A    between atoms: _246  and  _247
REMARK  103  A    between atoms: _246  and  _249
REMARK  104  A    between atoms: _249  and  _250
REMARK  105  A    between atoms: _253  and  _255
REMARK  106  A    between atoms: _255  and  _256
REMARK  107  A    between atoms: _255  and  _258
REMARK  108  A    between atoms: _258  and  _259
REMARK  109  A    between atoms: _259  and  _260
REMARK  110  A    between atoms: _263  and  _265
REMARK  111  A    between atoms: _265  and  _266
REMARK  112  A    between atoms: _265  and  _268
REMARK  113  A    between atoms: _268  and  _269
REMARK  114  A    between atoms: _272  and  _274
REMARK  115  A    between atoms: _274  and  _275
REMARK  116  A    between atoms: _274  and  _277
REMARK  117  A    between atoms: _277  and  _278
REMARK  118  A    between atoms: _281  and  _283
REMARK  119  A    between atoms: _283  and  _284
REMARK  120  A    between atoms: _283  and  _286
REMARK  121  A    between atoms: _286  and  _287
REMARK  122  A    between atoms: _292  and  _294
REMARK  123  A    between atoms: _294  and  _295
REMARK  124  A    between atoms: _298  and  _300
REMARK  125  A    between atoms: _300  and  _301
REMARK  126  A    between atoms: _300  and  _303
REMARK  127  A    between atoms: _303  and  _304
REMARK  128  A    between atoms: _307  and  _309
REMARK  129  A    between atoms: _309  and  _310
REMARK  130  A    between atoms: _309  and  _312
REMARK  131  A    between atoms: _315  and  _317
REMARK  132  A    between atoms: _317  and  _318
REMARK  133  A    between atoms: _317  and  _320
REMARK  134  A    between atoms: _320  and  _321
REMARK  135  A    between atoms: _321  and  _322
REMARK  136  A    between atoms: _322  and  _323
REMARK  137  A    between atoms: _332  and  _334
REMARK  138  A    between atoms: _334  and  _335
REMARK  139  A    between atoms: _334  and  _337
REMARK  140  A    between atoms: _337  and  _338
REMARK  141  A    between atoms: _341  and  _343
REMARK  142  A    between atoms: _343  and  _344
REMARK  143  A    between atoms: _343  and  _346
REMARK  144  A    between atoms: _346  and  _347
REMARK  145  A    between atoms: _350  and  _352
REMARK  146  A    between atoms: _352  and  _353
REMARK  147  A    between atoms: _352  and  _355
REMARK  148  A    between atoms: _355  and  _356
REMARK  149  A    between atoms: _356  and  _357
REMARK  150  A    between atoms: _357  and  _358
REMARK  151  A    between atoms: _367  and  _369
REMARK  152  A    between atoms: _369  and  _370
REMARK  153  A    between atoms: _369  and  _372
REMARK  154  A    between atoms: _372  and  _373
REMARK  155  A    between atoms: _373  and  _374
REMARK  156  A    between atoms: _379  and  _381
REMARK  157  A    between atoms: _381  and  _382
REMARK  158  A    between atoms: _381  and  _384
REMARK  159  A    between atoms: _387  and  _389
REMARK  160  A    between atoms: _389  and  _390
REMARK  161  A    between atoms: _389  and  _392
REMARK  162  A    between atoms: _392  and  _393
REMARK  163  A    between atoms: _396  and  _398
REMARK  164  A    between atoms: _398  and  _399
REMARK  165  A    between atoms: _398  and  _401
REMARK  166  A    between atoms: _401  and  _402
REMARK  167  A    between atoms: _402  and  _403
REMARK  168  A    between atoms: _406  and  _408
REMARK  169  A    between atoms: _408  and  _409
REMARK  170  A    between atoms: _408  and  _411
REMARK  171  A    between atoms: _411  and  _412
REMARK  172  A    between atoms: _415  and  _417
REMARK  173  A    between atoms: _417  and  _418
REMARK  174  A    between atoms: _417  and  _420
REMARK  175  A    between atoms: _420  and  _421
REMARK  176  A    between atoms: _424  and  _426
REMARK  177  A    between atoms: _426  and  _427
REMARK  178  A    between atoms: _426  and  _429
REMARK  179  A    between atoms: _429  and  _430
REMARK  180  A    between atoms: _435  and  _437
REMARK  181  A    between atoms: _437  and  _438
REMARK  182  A    between atoms: _441  and  _443
REMARK  183  A    between atoms: _443  and  _444
REMARK  184  A    between atoms: _443  and  _446
REMARK  185  A    between atoms: _446  and  _447
REMARK  186  A    between atoms: _450  and  _452
REMARK  187  A    between atoms: _452  and  _453
REMARK  188  A    between atoms: _452  and  _455
REMARK  189  A    between atoms: _458  and  _460
REMARK  190  A    between atoms: _460  and  _461
REMARK  191  A    between atoms: _460  and  _463
REMARK  192  A    between atoms: _463  and  _464
REMARK  193  A    between atoms: _464  and  _465
REMARK  194  A    between atoms: _465  and  _466
REMARK  195  A    between atoms: _475  and  _477
REMARK  196  A    between atoms: _477  and  _478
REMARK  197  A    between atoms: _477  and  _480
REMARK  198  A    between atoms: _480  and  _481
REMARK  199  A    between atoms: _484  and  _486
REMARK  200  A    between atoms: _486  and  _487
REMARK  201  A    between atoms: _486  and  _489
REMARK  202  A    between atoms: _489  and  _490
REMARK  203  A    between atoms: _493  and  _495
REMARK  204  A    between atoms: _495  and  _496
REMARK  205  A    between atoms: _495  and  _498
REMARK  206  A    between atoms: _498  and  _499
REMARK  207  A    between atoms: _499  and  _500
REMARK  208  A    between atoms: _505  and  _507
REMARK  209  A    between atoms: _507  and  _508
REMARK  210  A    between atoms: _507  and  _510
REMARK  211  A    between atoms: _513  and  _515
REMARK  212  A    between atoms: _515  and  _516
REMARK  213  A    between atoms: _515  and  _518
REMARK  214  A    between atoms: _518  and  _519
REMARK  215  A    between atoms: _522  and  _524
REMARK  216  A    between atoms: _524  and  _525
REMARK  217  A    between atoms: _524  and  _527
REMARK  218  A    between atoms: _527  and  _528
REMARK  219  A    between atoms: _528  and  _529
REMARK  220  A    between atoms: _532  and  _534
REMARK  221  A    between atoms: _534  and  _535
REMARK  222  A    between atoms: _534  and  _537
REMARK  223  A    between atoms: _537  and  _538
REMARK  224  A    between atoms: _541  and  _543
REMARK  225  A    between atoms: _543  and  _544
REMARK  226  A    between atoms: _543  and  _546
REMARK  227  A    between atoms: _546  and  _547
REMARK  228  A    between atoms: _550  and  _552
REMARK  229  A    between atoms: _552  and  _553
REMARK  230  A    between atoms: _552  and  _555
REMARK  231  A    between atoms: _555  and  _556
REMARK  232  A    between atoms: _561  and  _563
REMARK  233  A    between atoms: _563  and  _564
REMARK  234  A    between atoms: _567  and  _569
REMARK  235  A    between atoms: _569  and  _570
REMARK  236  A    between atoms: _569  and  _572
REMARK  237  A    between atoms: _572  and  _573
REMARK  238  A    between atoms: _576  and  _578
REMARK  239  A    between atoms: _578  and  _579
REMARK  240  A    between atoms: _578  and  _581
REMARK  241  A    between atoms: _584  and  _586
REMARK  242  A    between atoms: _586  and  _587
REMARK  243  A    between atoms: _586  and  _589
REMARK  244  A    between atoms: _589  and  _590
REMARK  245  A    between atoms: _590  and  _591
REMARK  246  A    between atoms: _591  and  _592
REMARK  247  A    between atoms: _601  and  _603
REMARK  248  A    between atoms: _603  and  _604
REMARK  249  A    between atoms: _603  and  _606
REMARK  250  A    between atoms: _606  and  _607
REMARK  251  A    between atoms: _610  and  _612
REMARK  252  A    between atoms: _612  and  _613
REMARK  253  A    between atoms: _612  and  _615
REMARK  254  A    between atoms: _615  and  _616
REMARK  255  A    between atoms: _619  and  _621
REMARK  256  A    between atoms: _621  and  _622
REMARK  257  A    between atoms: _621  and  _624
REMARK  258  A    between atoms: _624  and  _625
REMARK  259  A    between atoms: _625  and  _626
REMARK  260  A    between atoms: _631  and  _633
REMARK  261  A    between atoms: _633  and  _634
REMARK  262  A    between atoms: _633  and  _636
REMARK  263  A    between atoms: _639  and  _641
REMARK  264  A    between atoms: _641  and  _642
REMARK  265  A    between atoms: _641  and  _644
REMARK  266  A    between atoms: _644  and  _645
REMARK                            x       y       z     vdW  Elec       q    Type
REMARK                         _______ _______ _______ _____ _____    ______ ____
ROOT
ATOM      1  C   ALA A   1      12.953  -3.564   7.873  0.00  0.00    +0.238 C 
ATOM      2  O   ALA A   1      12.156  -3.634   8.806  0.00  0.00    -0.274 OA
ATOM      3  N   LEU A   2      12.630  -3.888   6.625  0.00  0.00    -0.298 N 
ATOM      4  H   LEU A   2      13.345  -3.796   5.875  0.00  0.00    +0.150 HD
ENDROOT
BRANCH   1   5
ATOM      5  CA  ALA A   1      14.381  -3.083   8.111  0.00  0.00    +0.145 C 
ATOM      6  CB  ALA A   1      14.523  -1.642   7.670  0.00  0.00    +0.028 C 
BRANCH   5   7
ATOM      7  N   ALA A   1      15.351  -3.911   7.403  0.00  0.00    -0.238 NA
ATOM      8  H   ALA A   1      15.918  -3.478   6.646  0.00  0.00    +0.142 HD
ENDBRANCH   5   7
ENDBRANCH   1   5
BRANCH   3   9
ATOM      9  CA  LEU A   2      11.295  -4.370   6.283  0.00  0.00    +0.137 C 
BRANCH   9  10
ATOM     10  C   LEU A   2      11.002  -5.728   6.929  0.00  0.00    +0.227 C 
ATOM     11  O   LEU A   2       9.870  -5.998   7.343  0.00  0.00    -0.286 OA
ENDBRANCH   9  10
BRANCH   9  12
ATOM     12  CB  LEU A   2      11.141  -4.482   4.763  0.00  0.00    +0.028 C 
BRANCH  12  13
ATOM     13  CG  LEU A   2      10.180  -3.519   4.051  0.00  0.00    +0.002 C 
ATOM     14  CD2 LEU A   2       8.786  -3.589   4.681  0.00  0.00    +0.000 C 
ATOM     15  CD1 LEU A   2      10.100  -3.885   2.578  0.00  0.00    +0.000 C 
ENDBRANCH  12  13
ENDBRANCH   9  12
ENDBRANCH   3   9
TORSDOF 6
REMARK  Name = ../refined-set-2016/3v2q/3v2q_pocket.pdb
REMARK  266 active torsions:
REMARK  status: ('A' for Active; 'I' for Inactive)
REMARK    1  A    between atoms: _1  and  _3
REMARK    2  A    between atoms: _3  and  _4
REMARK    3  A    between atoms: _3  and  _6
REMARK    4  A    between atoms: _6  and  _7
REMARK    5  A    between atoms: _7  and  _8
REMARK    6  A    between atoms: _11  and  _13
REMARK    7  A    between atoms: _13  and  _14
REMARK    8  A    between atoms: _13  and  _16
REMARK    9  A    between atoms: _16  and  _17
REMARK   10  A    between atoms: _20  and  _22
REMARK   11  A    between atoms: _22  and  _23
REMARK   12  A    between atoms: _22  and  _25
REMARK   13  A    between atoms: _25  and  _26
REMARK   14  A    between atoms: _29  and  _31
REMARK   15  A    between atoms: _31  and  _32
REMARK   16  A    between atoms: _31  and  _34
REMARK   17  A    between atoms: _34  and  _35
REMARK   18  A    between atoms: _40  and  _42
REMARK   19  A    between atoms: _42  and  _43
REMARK   20  A    between atoms: _46  and  _48
REMARK   21  A    between atoms: _48  and  _49
REMARK   22  A    between atoms: _48  and  _51
REMARK   23  A    between atoms: _51  and  _52
REMARK   24  A    between atoms: _55  and  _57
REMARK   25  A    between atoms: _57  and  _58
REMARK   26  A    between atoms: _57  and  _60
REMARK   27  A    between atoms: _63  and  _65
REMARK   28  A    between atoms: _65  and  _66
REMARK   29  A    between atoms: _65  and  _68
REMARK   30  A    between atoms: _68  and  _69
REMARK   31  A    between atoms: _69  and  _70
REMARK   32  A    between atoms: _70  and  _71
REMARK   33  A    between atoms: _80  and  _82
REMARK   34  A    between atoms: _82  and  _83
REMARK   35  A    between atoms: _82  and  _85
REMARK   36  A    between atoms: _85  and  _86
REMARK   37  A    between atoms: _89  and  _91
REMARK   38  A    between atoms: _91  and  _92
REMARK   39  A    between atoms: _91  and  _94
REMARK   40  A    between atoms: _94  and  _95
REMARK   41  A    between atoms: _98  and  _100
REMARK   42  A    between atoms: _100  and  _101
REMARK   43  A    between atoms: _100  and  _103
REMARK   44  A    between atoms: _103  and  _104
REMARK   45  A    between atoms: _104  and  _105
REMARK   46  A    between atoms: _110  and  _112
REMARK   47  A    between atoms: _112  and  _113
REMARK   48  A    between atoms: _112  and  _115
REMARK   49  A    between atoms: _118  and  _120
REMARK   50  A    between atoms: _120  and  _121
REMARK   51  A    between atoms: _120  and  _123
REMARK   52  A    between atoms: _123  and  _124
REMARK   53  A    between atoms: _127  and  _129
REMARK   54  A    between atoms: _129  and  _130
REMARK   55  A    between atoms: _129  and  _132
REMARK   56  A    between atoms: _132  and  _133
REMARK   57  A    between atoms: _133  and  _134
REMARK   58  A    between atoms: _137  and  _139
REMARK   59  A    between atoms: _139  and  _140
REMARK   60  A    between atoms: _139  and  _142
REMARK   61  A    between atoms: _142  and  _143
REMARK   62  A    between atoms: _146  and  _148
REMARK   63  A    between atoms: _148  and  _149
REMARK   64  A    between atoms: _148  and  _151
REMARK   65  A    between atoms: _151  and  _152
REMARK   66  A    between atoms: _155  and  _157
REMARK   67  A    between atoms: _157  and  _158
REMARK   68  A    between atoms: _157  and  _160
REMARK   69  A    between atoms: _160  and  _161
REMARK   70  A    between atoms: _166  and  _168
REMARK   71  A    between atoms: _168  and  _169
REMARK   72  A    between atoms: _172  and  _174
REMARK   73  A    between atoms: _174  and  _175
REMARK   74  A    between atoms: _174  and  _177
REMARK   75  A    between atoms: _177  and  _178
REMARK   76  A    between atoms: _181  and  _183
REMARK   77  A    between atoms: _183  and  _184
REMARK   78  A    between atoms: _183  and  _186
REMARK   79  A    between atoms: _189  and  _191
REMARK   80  A    between atoms: _191  and  _192
REMARK   81  A    between atoms: _191  and  _194
REMARK   82  A    between atoms: _194  and  _195
REMARK   83  A    between atoms: _195  and  _196
REMARK   84  A    between atoms: _196  and  _197
REMARK   85  A    between atoms: _206  and  _208
REMARK   86  A    between atoms: _208  and  _209
REMARK   87  A    between atoms: _208  and  _211
REMARK   88  A    between atoms: _211  and  _212
REMARK   89  A    between atoms: _215  and  _217
REMARK   90  A    between atoms: _217  and  _218
REMARK   91  A    between atoms: _217  and  _220
REMARK   92  A    between atoms: _220  and  _221
REMARK   93  A    between atoms: _224  and  _226
REMARK   94  A    between atoms: _226  and  _227
REMARK   95  A    between atoms: _226  and  _229
REMARK   96  A    between atoms: _229  and  _230
REMARK   97  A    between atoms: _230  and  _231
REMARK   98  A    between atoms: _236  and  _238
REMARK   99  A    between atoms: _238  and  _239
REMARK  100  A    between atoms: _238  and  _241
REMARK  101  A    between atoms: _244  and  _246
REMARK  102  A    between atoms: _246  and  _247
REMARK  103  A    between atoms: _246  and  _249
REMARK  104  A    between atoms: _249  and  _250
REMARK  105  A    between atoms: _253  and  _255
REMARK  106  A    between atoms: _255  and  _256
REMARK  107  A    between atoms: _255  and  _258
REMARK  108  A    between atoms: _258  and  _259
REMARK  109  A    between atoms: _259  and  _260
REMARK  110  A    between atoms: _263  and  _265
REMARK  111  A    between atoms: _265  and  _266
REMARK  112  A    between atoms: _265  and  _268
REMARK  113  A    between atoms: _268  and  _269
REMARK  114  A    between atoms: _272  and  _274
REMARK  115  A    between atoms: _274  and  _275
REMARK  116  A    between atoms: _274  and  _277
REMARK  117  A    between atoms: _277  and  _278
REMARK  118  A    between atoms: _281  and  _283
REMARK  119  A    between atoms: _283  and  _284
REMARK  120  A    between atoms: _283  and  _286
REMARK  121  A    between atoms: _286  and  _287
REMARK  122  A    between atoms: _292  and  _294
REMARK  123  A    between atoms: _294  and  _295
REMARK  124  A    between atoms: _298  and  _300
REMARK  125  A    between atoms: _300  and  _301
REMARK  126  A    between atoms: _300  and  _303
REMARK  127  A    between atoms: _303  and  _304
REMARK  128  A    between atoms: _307  and  _309
REMARK  129  A    between atoms: _309  and  _310
REMARK  130  A    between atoms: _309  and  _312
REMARK  131  A    between atoms: _315  and  _317
REMARK  132  A    between atoms: _317  and  _318
REMARK  133  A    between atoms: _317  and  _320
REMARK  134  A    between atoms: _320  and  _321
REMARK  135  A    between atoms: _321  and  _322
REMARK  136  A    between atoms: _322  and  _323
REMARK  137  A    between atoms: _332  and  _334
REMARK  138  A    between atoms: _334  and  _335
REMARK  139  A    between atoms: _334  and  _337
REMARK  140  A    between atoms: _337  and  _338
REMARK  141  A    between atoms: _341  and  _343
REMARK  142  A    between atoms: _343  and  _344
REMARK  143  A    between atoms: _343  and  _346
REMARK  144  A    between atoms: _346  and  _347
REMARK  145  A    between atoms: _350  and  _352
REMARK  146  A    between atoms: _352  and  _353
REMARK  147  A    between atoms: _352  and  _355
REMARK  148  A    between atoms: _355  and  _356
REMARK  149  A    between atoms: _356  and  _357
REMARK  150  A    between atoms: _357  and  _358
REMARK  151  A    between atoms: _367  and  _369
REMARK  152  A    between atoms: _369  and  _370
REMARK  153  A    between atoms: _369  and  _372
REMARK  154  A    between atoms: _372  and  _373
REMARK  155  A    between atoms: _373  and  _374
REMARK  156  A    between atoms: _379  and  _381
REMARK  157  A    between atoms: _381  and  _382
REMARK  158  A    between atoms: _381  and  _384
REMARK  159  A    between atoms: _387  and  _389
REMARK  160  A    between atoms: _389  and  _390
REMARK  161  A    between atoms: _389  and  _392
REMARK  162  A    between atoms: _392  and  _393
REMARK  163  A    between atoms: _396  and  _398
REMARK  164  A    between atoms: _398  and  _399
REMARK  165  A    between atoms: _398  and  _401
REMARK  166  A    between atoms: _401  and  _402
REMARK  167  A    between atoms: _402  and  _403
REMARK  168  A    between atoms: _406  and  _408
REMARK  169  A    between atoms: _408  and  _409
REMARK  170  A    between atoms: _408  and  _411
REMARK  171  A    between atoms: _411  and  _412
REMARK  172  A    between atoms: _415  and  _417
REMARK  173  A    between atoms: _417  and  _418
REMARK  174  A    between atoms: _417  and  _420
REMARK  175  A    between atoms: _420  and  _421
REMARK  176  A    between atoms: _424  and  _426
REMARK  177  A    between atoms: _426  and  _427
REMARK  178  A    between atoms: _426  and  _429
REMARK  179  A    between atoms: _429  and  _430
REMARK  180  A    between atoms: _435  and  _437
REMARK  181  A    between atoms: _437  and  _438
REMARK  182  A    between atoms: _441  and  _443
REMARK  183  A    between atoms: _443  and  _444
REMARK  184  A    between atoms: _443  and  _446
REMARK  185  A    between atoms: _446  and  _447
REMARK  186  A    between atoms: _450  and  _452
REMARK  187  A    between atoms: _452  and  _453
REMARK  188  A    between atoms: _452  and  _455
REMARK  189  A    between atoms: _458  and  _460
REMARK  190  A    between atoms: _460  and  _461
REMARK  191  A    between atoms: _460  and  _463
REMARK  192  A    between atoms: _463  and  _464
REMARK  193  A    between atoms: _464  and  _465
REMARK  194  A    between atoms: _465  and  _466
REMARK  195  A    between atoms: _475  and  _477
REMARK  196  A    between atoms: _477  and  _478
REMARK  197  A    between atoms: _477  and  _480
REMARK  198  A    between atoms: _480  and  _481
REMARK  199  A    between atoms: _484  and  _486
REMARK  200  A    between atoms: _486  and  _487
REMARK  201  A    between atoms: _486  and  _489
REMARK  202  A    between atoms: _489  and  _490
REMARK  203  A    between atoms: _493  and  _495
REMARK  204  A    between atoms: _495  and  _496
REMARK  205  A    between atoms: _495  and  _498
REMARK  206  A    between atoms: _498  and  _499
REMARK  207  A    between atoms: _499  and  _500
REMARK  208  A    between atoms: _505  and  _507
REMARK  209  A    between atoms: _507  and  _508
REMARK  210  A    between atoms: _507  and  _510
REMARK  211  A    between atoms: _513  and  _515
REMARK  212  A    between atoms: _515  and  _516
REMARK  213  A    between atoms: _515  and  _518
REMARK  214  A    between atoms: _518  and  _519
REMARK  215  A    between atoms: _522  and  _524
REMARK  216  A    between atoms: _524  and  _525
REMARK  217  A    between atoms: _524  and  _527
REMARK  218  A    between atoms: _527  and  _528
REMARK  219  A    between atoms: _528  and  _529
REMARK  220  A    between atoms: _532  and  _534
REMARK  221  A    between atoms: _534  and  _535
REMARK  222  A    between atoms: _534  and  _537
REMARK  223  A    between atoms: _537  and  _538
REMARK  224  A    between atoms: _541  and  _543
REMARK  225  A    between atoms: _543  and  _544
REMARK  226  A    between atoms: _543  and  _546
REMARK  227  A    between atoms: _546  and  _547
REMARK  228  A    between atoms: _550  and  _552
REMARK  229  A    between atoms: _552  and  _553
REMARK  230  A    between atoms: _552  and  _555
REMARK  231  A    between atoms: _555  and  _556
REMARK  232  A    between atoms: _561  and  _563
REMARK  233  A    between atoms: _563  and  _564
REMARK  234  A    between atoms: _567  and  _569
REMARK  235  A    between atoms: _569  and  _570
REMARK  236  A    between atoms: _569  and  _572
REMARK  237  A    between atoms: _572  and  _573
REMARK  238  A    between atoms: _576  and  _578
REMARK  239  A    between atoms: _578  and  _579
REMARK  240  A    between atoms: _578  and  _581
REMARK  241  A    between atoms: _584  and  _586
REMARK  242  A    between atoms: _586  and  _587
REMARK  243  A    between atoms: _586  and  _589
REMARK  244  A    between atoms: _589  and  _590
REMARK  245  A    between atoms: _590  and  _591
REMARK  246  A    between atoms: _591  and  _592
REMARK  247  A    between atoms: _601  and  _603
REMARK  248  A    between atoms: _603  and  _604
REMARK  249  A    between atoms: _603  and  _606
REMARK  250  A    between atoms: _606  and  _607
REMARK  251  A    between atoms: _610  and  _612
REMARK  252  A    between atoms: _612  and  _613
REMARK  253  A    between atoms: _612  and  _615
REMARK  254  A    between atoms: _615  and  _616
REMARK  255  A    between atoms: _619  and  _621
REMARK  256  A    between atoms: _621  and  _622
REMARK  257  A    between atoms: _621  and  _624
REMARK  258  A    between atoms: _624  and  _625
REMARK  259  A    between atoms: _625  and  _626
REMARK  260  A    between atoms: _631  and  _633
REMARK  261  A    between atoms: _633  and  _634
REMARK  262  A    between atoms: _633  and  _636
REMARK  263  A    between atoms: _639  and  _641
REMARK  264  A    between atoms: _641  and  _642
REMARK  265  A    between atoms: _641  and  _644
REMARK  266  A    between atoms: _644  and  _645
REMARK                            x       y       z     vdW  Elec       q    Type
REMARK                         _______ _______ _______ _____ _____    ______ ____
ROOT
ATOM      1  CA  ARG A   2       6.854  -7.426   9.043  0.00  0.00    +0.137 C 
ENDROOT
BRANCH   1   4
ATOM      2  C   VAL A   1       7.538  -5.338  10.095  0.00  0.00    +0.238 C 
ATOM      3  O   VAL A   1       6.487  -5.271  10.738  0.00  0.00    -0.274 OA
ATOM      4  N   ARG A   2       7.807  -6.340   9.262  0.00  0.00    -0.298 N 
ATOM      5  H   ARG A   2       8.715  -6.351   8.756  0.00  0.00    +0.150 HD
BRANCH   2   6
ATOM      6  CA  VAL A   1       8.627  -4.259  10.237  0.00  0.00    +0.145 C 
BRANCH   6   7
ATOM      7  CB  VAL A   1       8.497  -3.251   9.069  0.00  0.00    +0.025 C 
ATOM      8  CG2 VAL A   1       9.314  -1.984   9.374  0.00  0.00    +0.002 C 
ATOM      9  CG1 VAL A   1       7.034  -2.877   8.853  0.00  0.00    +0.002 C 
ENDBRANCH   6   7
BRANCH   6  10
ATOM     10  N   VAL A   1       9.948  -4.893  10.249  0.00  0.00    -0.238 NA
ATOM     11  H   VAL A   1      10.632  -4.663   9.500  0.00  0.00    +0.142 HD
ENDBRANCH   6  10
ENDBRANCH   2   6
ENDBRANCH   1   4
BRANCH   1  12
ATOM     12  C   ARG A   2       6.664  -8.259  10.310  0.00  0.00    +0.227 C 
ATOM     13  O   ARG A   2       5.532  -8.544  10.704  0.00  0.00    -0.286 OA
ENDBRANCH   1  12
BRANCH   1  14
ATOM     14  CB  ARG A   2       7.333  -8.319   7.894  0.00  0.00    +0.031 C 
BRANCH  14  15
ATOM     15  CG  ARG A   2       6.427  -9.500   7.581  0.00  0.00    +0.045 C 
BRANCH  15  16
ATOM     16  CD  ARG A   2       6.887 -10.229   6.314  0.00  0.00    +0.174 C 
BRANCH  16  17
ATOM     17  NE  ARG A   2       8.217 -10.822   6.459  0.00  0.00    -0.265 N 
ATOM     18  HE  ARG A   2       8.635 -10.849   7.411  0.00  0.00    +0.259 HD
ATOM     19  CZ  ARG A   2       8.928 -11.330   5.453  0.00  0.00    +0.342 C 
ATOM     20  NH2 ARG A   2      10.126 -11.846   5.682  0.00  0.00    -0.292 N 
ATOM     21 HH21 ARG A   2      10.512 -11.855   6.647  0.00  0.00    +0.255 HD
ATOM     22 HH22 ARG A   2      10.680 -12.242   4.896  0.00  0.00    +0.255 HD
ATOM     23  NH1 ARG A   2       8.448 -11.323   4.218  0.00  0.00    -0.292 N 
ATOM     24 HH11 ARG A   2       7.509 -10.919   4.027  0.00  0.00    +0.255 HD
ATOM     25 HH12 ARG A   2       9.010 -11.722   3.439  0.00  0.00    +0.255 HD
ENDBRANCH  16  17
ENDBRANCH  15  16
ENDBRANCH  14  15
ENDBRANCH   1  14
TORSDOF 9
REMARK  Name = ../refined-set-2016/3v2q/3v2q_pocket.pdb
REMARK  266 active torsions:
REMARK  status: ('A' for Active; 'I' for Inactive)
REMARK    1  A    between atoms: _1  and  _3
REMARK    2  A    between atoms: _3  and  _4
REMARK    3  A    between atoms: _3  and  _6
REMARK    4  A    between atoms: _6  and  _7
REMARK    5  A    between atoms: _7  and  _8
REMARK    6  A    between atoms: _11  and  _13
REMARK    7  A    between atoms: _13  and  _14
REMARK    8  A    between atoms: _13  and  _16
REMARK    9  A    between atoms: _16  and  _17
REMARK   10  A    between atoms: _20  and  _22
REMARK   11  A    between atoms: _22  and  _23
REMARK   12  A    between atoms: _22  and  _25
REMARK   13  A    between atoms: _25  and  _26
REMARK   14  A    between atoms: _29  and  _31
REMARK   15  A    between atoms: _31  and  _32
REMARK   16  A    between atoms: _31  and  _34
REMARK   17  A    between atoms: _34  and  _35
REMARK   18  A    between atoms: _40  and  _42
REMARK   19  A    between atoms: _42  and  _43
REMARK   20  A    between atoms: _46  and  _48
REMARK   21  A    between atoms: _48  and  _49
REMARK   22  A    between atoms: _48  and  _51
REMARK   23  A    between atoms: _51  and  _52
REMARK   24  A    between atoms: _55  and  _57
REMARK   25  A    between atoms: _57  and  _58
REMARK   26  A    between atoms: _57  and  _60
REMARK   27  A    between atoms: _63  and  _65
REMARK   28  A    between atoms: _65  and  _66
REMARK   29  A    between atoms: _65  and  _68
REMARK   30  A    between atoms: _68  and  _69
REMARK   31  A    between atoms: _69  and  _70
REMARK   32  A    between atoms: _70  and  _71
REMARK   33  A    between atoms: _80  and  _82
REMARK   34  A    between atoms: _82  and  _83
REMARK   35  A    between atoms: _82  and  _85
REMARK   36  A    between atoms: _85  and  _86
REMARK   37  A    between atoms: _89  and  _91
REMARK   38  A    between atoms: _91  and  _92
REMARK   39  A    between atoms: _91  and  _94
REMARK   40  A    between atoms: _94  and  _95
REMARK   41  A    between atoms: _98  and  _100
REMARK   42  A    between atoms: _100  and  _101
REMARK   43  A    between atoms: _100  and  _103
REMARK   44  A    between atoms: _103  and  _104
REMARK   45  A    between atoms: _104  and  _105
REMARK   46  A    between atoms: _110  and  _112
REMARK   47  A    between atoms: _112  and  _113
REMARK   48  A    between atoms: _112  and  _115
REMARK   49  A    between atoms: _118  and  _120
REMARK   50  A    between atoms: _120  and  _121
REMARK   51  A    between atoms: _120  and  _123
REMARK   52  A    between atoms: _123  and  _124
REMARK   53  A    between atoms: _127  and  _129
REMARK   54  A    between atoms: _129  and  _130
REMARK   55  A    between atoms: _129  and  _132
REMARK   56  A    between atoms: _132  and  _133
REMARK   57  A    between atoms: _133  and  _134
REMARK   58  A    between atoms: _137  and  _139
REMARK   59  A    between atoms: _139  and  _140
REMARK   60  A    between atoms: _139  and  _142
REMARK   61  A    between atoms: _142  and  _143
REMARK   62  A    between atoms: _146  and  _148
REMARK   63  A    between atoms: _148  and  _149
REMARK   64  A    between atoms: _148  and  _151
REMARK   65  A    between atoms: _151  and  _152
REMARK   66  A    between atoms: _155  and  _157
REMARK   67  A    between atoms: _157  and  _158
REMARK   68  A    between atoms: _157  and  _160
REMARK   69  A    between atoms: _160  and  _161
REMARK   70  A    between atoms: _166  and  _168
REMARK   71  A    between atoms: _168  and  _169
REMARK   72  A    between atoms: _172  and  _174
REMARK   73  A    between atoms: _174  and  _175
REMARK   74  A    between atoms: _174  and  _177
REMARK   75  A    between atoms: _177  and  _178
REMARK   76  A    between atoms: _181  and  _183
REMARK   77  A    between atoms: _183  and  _184
REMARK   78  A    between atoms: _183  and  _186
REMARK   79  A    between atoms: _189  and  _191
REMARK   80  A    between atoms: _191  and  _192
REMARK   81  A    between atoms: _191  and  _194
REMARK   82  A    between atoms: _194  and  _195
REMARK   83  A    between atoms: _195  and  _196
REMARK   84  A    between atoms: _196  and  _197
REMARK   85  A    between atoms: _206  and  _208
REMARK   86  A    between atoms: _208  and  _209
REMARK   87  A    between atoms: _208  and  _211
REMARK   88  A    between atoms: _211  and  _212
REMARK   89  A    between atoms: _215  and  _217
REMARK   90  A    between atoms: _217  and  _218
REMARK   91  A    between atoms: _217  and  _220
REMARK   92  A    between atoms: _220  and  _221
REMARK   93  A    between atoms: _224  and  _226
REMARK   94  A    between atoms: _226  and  _227
REMARK   95  A    between atoms: _226  and  _229
REMARK   96  A    between atoms: _229  and  _230
REMARK   97  A    between atoms: _230  and  _231
REMARK   98  A    between atoms: _236  and  _238
REMARK   99  A    between atoms: _238  and  _239
REMARK  100  A    between atoms: _238  and  _241
REMARK  101  A    between atoms: _244  and  _246
REMARK  102  A    between atoms: _246  and  _247
REMARK  103  A    between atoms: _246  and  _249
REMARK  104  A    between atoms: _249  and  _250
REMARK  105  A    between atoms: _253  and  _255
REMARK  106  A    between atoms: _255  and  _256
REMARK  107  A    between atoms: _255  and  _258
REMARK  108  A    between atoms: _258  and  _259
REMARK  109  A    between atoms: _259  and  _260
REMARK  110  A    between atoms: _263  and  _265
REMARK  111  A    between atoms: _265  and  _266
REMARK  112  A    between atoms: _265  and  _268
REMARK  113  A    between atoms: _268  and  _269
REMARK  114  A    between atoms: _272  and  _274
REMARK  115  A    between atoms: _274  and  _275
REMARK  116  A    between atoms: _274  and  _277
REMARK  117  A    between atoms: _277  and  _278
REMARK  118  A    between atoms: _281  and  _283
REMARK  119  A    between atoms: _283  and  _284
REMARK  120  A    between atoms: _283  and  _286
REMARK  121  A    between atoms: _286  and  _287
REMARK  122  A    between atoms: _292  and  _294
REMARK  123  A    between atoms: _294  and  _295
REMARK  124  A    between atoms: _298  and  _300
REMARK  125  A    between atoms: _300  and  _301
REMARK  126  A    between atoms: _300  and  _303
REMARK  127  A    between atoms: _303  and  _304
REMARK  128  A    between atoms: _307  and  _309
REMARK  129  A    between atoms: _309  and  _310
REMARK  130  A    between atoms: _309  and  _312
REMARK  131  A    between atoms: _315  and  _317
REMARK  132  A    between atoms: _317  and  _318
REMARK  133  A    between atoms: _317  and  _320
REMARK  134  A    between atoms: _320  and  _321
REMARK  135  A    between atoms: _321  and  _322
REMARK  136  A    between atoms: _322  and  _323
REMARK  137  A    between atoms: _332  and  _334
REMARK  138  A    between atoms: _334  and  _335
REMARK  139  A    between atoms: _334  and  _337
REMARK  140  A    between atoms: _337  and  _338
REMARK  141  A    between atoms: _341  and  _343
REMARK  142  A    between atoms: _343  and  _344
REMARK  143  A    between atoms: _343  and  _346
REMARK  144  A    between atoms: _346  and  _347
REMARK  145  A    between atoms: _350  and  _352
REMARK  146  A    between atoms: _352  and  _353
REMARK  147  A    between atoms: _352  and  _355
REMARK  148  A    between atoms: _355  and  _356
REMARK  149  A    between atoms: _356  and  _357
REMARK  150  A    between atoms: _357  and  _358
REMARK  151  A    between atoms: _367  and  _369
REMARK  152  A    between atoms: _369  and  _370
REMARK  153  A    between atoms: _369  and  _372
REMARK  154  A    between atoms: _372  and  _373
REMARK  155  A    between atoms: _373  and  _374
REMARK  156  A    between atoms: _379  and  _381
REMARK  157  A    between atoms: _381  and  _382
REMARK  158  A    between atoms: _381  and  _384
REMARK  159  A    between atoms: _387  and  _389
REMARK  160  A    between atoms: _389  and  _390
REMARK  161  A    between atoms: _389  and  _392
REMARK  162  A    between atoms: _392  and  _393
REMARK  163  A    between atoms: _396  and  _398
REMARK  164  A    between atoms: _398  and  _399
REMARK  165  A    between atoms: _398  and  _401
REMARK  166  A    between atoms: _401  and  _402
REMARK  167  A    between atoms: _402  and  _403
REMARK  168  A    between atoms: _406  and  _408
REMARK  169  A    between atoms: _408  and  _409
REMARK  170  A    between atoms: _408  and  _411
REMARK  171  A    between atoms: _411  and  _412
REMARK  172  A    between atoms: _415  and  _417
REMARK  173  A    between atoms: _417  and  _418
REMARK  174  A    between atoms: _417  and  _420
REMARK  175  A    between atoms: _420  and  _421
REMARK  176  A    between atoms: _424  and  _426
REMARK  177  A    between atoms: _426  and  _427
REMARK  178  A    between atoms: _426  and  _429
REMARK  179  A    between atoms: _429  and  _430
REMARK  180  A    between atoms: _435  and  _437
REMARK  181  A    between atoms: _437  and  _438
REMARK  182  A    between atoms: _441  and  _443
REMARK  183  A    between atoms: _443  and  _444
REMARK  184  A    between atoms: _443  and  _446
REMARK  185  A    between atoms: _446  and  _447
REMARK  186  A    between atoms: _450  and  _452
REMARK  187  A    between atoms: _452  and  _453
REMARK  188  A    between atoms: _452  and  _455
REMARK  189  A    between atoms: _458  and  _460
REMARK  190  A    between atoms: _460  and  _461
REMARK  191  A    between atoms: _460  and  _463
REMARK  192  A    between atoms: _463  and  _464
REMARK  193  A    between atoms: _464  and  _465
REMARK  194  A    between atoms: _465  and  _466
REMARK  195  A    between atoms: _475  and  _477
REMARK  196  A    between atoms: _477  and  _478
REMARK  197  A    between atoms: _477  and  _480
REMARK  198  A    between atoms: _480  and  _481
REMARK  199  A    between atoms: _484  and  _486
REMARK  200  A    between atoms: _486  and  _487
REMARK  201  A    between atoms: _486  and  _489
REMARK  202  A    between atoms: _489  and  _490
REMARK  203  A    between atoms: _493  and  _495
REMARK  204  A    between atoms: _495  and  _496
REMARK  205  A    between atoms: _495  and  _498
REMARK  206  A    between atoms: _498  and  _499
REMARK  207  A    between atoms: _499  and  _500
REMARK  208  A    between atoms: _505  and  _507
REMARK  209  A    between atoms: _507  and  _508
REMARK  210  A    between atoms: _507  and  _510
REMARK  211  A    between atoms: _513  and  _515
REMARK  212  A    between atoms: _515  and  _516
REMARK  213  A    between atoms: _515  and  _518
REMARK  214  A    between atoms: _518  and  _519
REMARK  215  A    between atoms: _522  and  _524
REMARK  216  A    between atoms: _524  and  _525
REMARK  217  A    between atoms: _524  and  _527
REMARK  218  A    between atoms: _527  and  _528
REMARK  219  A    between atoms: _528  and  _529
REMARK  220  A    between atoms: _532  and  _534
REMARK  221  A    between atoms: _534  and  _535
REMARK  222  A    between atoms: _534  and  _537
REMARK  223  A    between atoms: _537  and  _538
REMARK  224  A    between atoms: _541  and  _543
REMARK  225  A    between atoms: _543  and  _544
REMARK  226  A    between atoms: _543  and  _546
REMARK  227  A    between atoms: _546  and  _547
REMARK  228  A    between atoms: _550  and  _552
REMARK  229  A    between atoms: _552  and  _553
REMARK  230  A    between atoms: _552  and  _555
REMARK  231  A    between atoms: _555  and  _556
REMARK  232  A    between atoms: _561  and  _563
REMARK  233  A    between atoms: _563  and  _564
REMARK  234  A    between atoms: _567  and  _569
REMARK  235  A    between atoms: _569  and  _570
REMARK  236  A    between atoms: _569  and  _572
REMARK  237  A    between atoms: _572  and  _573
REMARK  238  A    between atoms: _576  and  _578
REMARK  239  A    between atoms: _578  and  _579
REMARK  240  A    between atoms: _578  and  _581
REMARK  241  A    between atoms: _584  and  _586
REMARK  242  A    between atoms: _586  and  _587
REMARK  243  A    between atoms: _586  and  _589
REMARK  244  A    between atoms: _589  and  _590
REMARK  245  A    between atoms: _590  and  _591
REMARK  246  A    between atoms: _591  and  _592
REMARK  247  A    between atoms: _601  and  _603
REMARK  248  A    between atoms: _603  and  _604
REMARK  249  A    between atoms: _603  and  _606
REMARK  250  A    between atoms: _606  and  _607
REMARK  251  A    between atoms: _610  and  _612
REMARK  252  A    between atoms: _612  and  _613
REMARK  253  A    between atoms: _612  and  _615
REMARK  254  A    between atoms: _615  and  _616
REMARK  255  A    between atoms: _619  and  _621
REMARK  256  A    between atoms: _621  and  _622
REMARK  257  A    between atoms: _621  and  _624
REMARK  258  A    between atoms: _624  and  _625
REMARK  259  A    between atoms: _625  and  _626
REMARK  260  A    between atoms: _631  and  _633
REMARK  261  A    between atoms: _633  and  _634
REMARK  262  A    between atoms: _633  and  _636
REMARK  263  A    between atoms: _639  and  _641
REMARK  264  A    between atoms: _641  and  _642
REMARK  265  A    between atoms: _641  and  _644
REMARK  266  A    between atoms: _644  and  _645
REMARK                            x       y       z     vdW  Elec       q    Type
REMARK                         _______ _______ _______ _____ _____    ______ ____
ROOT
ATOM      1  C   LEU A   1       5.004  -6.454  14.015  0.00  0.00    +0.238 C 
ATOM      2  O   LEU A   1       4.188  -6.535  14.931  0.00  0.00    -0.274 OA
ATOM      3  N   LEU A   2       4.642  -6.355  12.744  0.00  0.00    -0.298 N 
ATOM      4  H   LEU A   2       5.371  -6.312  12.004  0.00  0.00    +0.150 HD
ENDROOT
BRANCH   1   5
ATOM      5  CA  LEU A   1       6.498  -6.499  14.293  0.00  0.00    +0.145 C 
BRANCH   5   6
ATOM      6  N   LEU A   1       7.178  -7.341  13.318  0.00  0.00    -0.238 NA
ATOM      7  H   LEU A   1       7.872  -6.917  12.670  0.00  0.00    +0.142 HD
ENDBRANCH   5   6
BRANCH   5   8
ATOM      8  CB  LEU A   1       7.075  -5.084  14.283  0.00  0.00    +0.026 C 
BRANCH   8   9
ATOM      9  CG  LEU A   1       8.372  -4.906  15.079  0.00  0.00    +0.002 C 
ATOM     10  CD2 LEU A   1       8.103  -5.180  16.545  0.00  0.00    +0.000 C 
ATOM     11  CD1 LEU A   1       8.912  -3.497  14.911  0.00  0.00    +0.000 C 
ENDBRANCH   8   9
ENDBRANCH   5   8
ENDBRANCH   1   5
BRANCH   3  12
ATOM     12  CA  LEU A   2       3.236  -6.306  12.373  0.00  0.00    +0.137 C 
BRANCH  12  13
ATOM     13  C   LEU A   2       2.546  -7.634  12.673  0.00  0.00    +0.227 C 
ATOM     14  O   LEU A   2       1.395  -7.650  13.109  0.00  0.00    -0.286 OA
ENDBRANCH  12  13
BRANCH  12  15
ATOM     15  CB  LEU A   2       3.103  -5.943  10.896  0.00  0.00    +0.028 C 
BRANCH  15  16
ATOM     16  CG  LEU A   2       1.719  -5.688  10.293  0.00  0.00    +0.002 C 
ATOM     17  CD2 LEU A   2       0.944  -4.685  11.120  0.00  0.00    +0.000 C 
ATOM     18  CD1 LEU A   2       1.905  -5.174   8.871  0.00  0.00    +0.000 C 
ENDBRANCH  15  16
ENDBRANCH  12  15
ENDBRANCH   3  12
TORSDOF 8
REMARK  Name = ../refined-set-2016/3v2q/3v2q_pocket.pdb
REMARK  266 active torsions:
REMARK  status: ('A' for Active; 'I' for Inactive)
REMARK    1  A    between atoms: _1  and  _3
REMARK    2  A    between atoms: _3  and  _4
REMARK    3  A    between atoms: _3  and  _6
REMARK    4  A    between atoms: _6  and  _7
REMARK    5  A    between atoms: _7  and  _8
REMARK    6  A    between atoms: _11  and  _13
REMARK    7  A    between atoms: _13  and  _14
REMARK    8  A    between atoms: _13  and  _16
REMARK    9  A    between atoms: _16  and  _17
REMARK   10  A    between atoms: _20  and  _22
REMARK   11  A    between atoms: _22  and  _23
REMARK   12  A    between atoms: _22  and  _25
REMARK   13  A    between atoms: _25  and  _26
REMARK   14  A    between atoms: _29  and  _31
REMARK   15  A    between atoms: _31  and  _32
REMARK   16  A    between atoms: _31  and  _34
REMARK   17  A    between atoms: _34  and  _35
REMARK   18  A    between atoms: _40  and  _42
REMARK   19  A    between atoms: _42  and  _43
REMARK   20  A    between atoms: _46  and  _48
REMARK   21  A    between atoms: _48  and  _49
REMARK   22  A    between atoms: _48  and  _51
REMARK   23  A    between atoms: _51  and  _52
REMARK   24  A    between atoms: _55  and  _57
REMARK   25  A    between atoms: _57  and  _58
REMARK   26  A    between atoms: _57  and  _60
REMARK   27  A    between atoms: _63  and  _65
REMARK   28  A    between atoms: _65  and  _66
REMARK   29  A    between atoms: _65  and  _68
REMARK   30  A    between atoms: _68  and  _69
REMARK   31  A    between atoms: _69  and  _70
REMARK   32  A    between atoms: _70  and  _71
REMARK   33  A    between atoms: _80  and  _82
REMARK   34  A    between atoms: _82  and  _83
REMARK   35  A    between atoms: _82  and  _85
REMARK   36  A    between atoms: _85  and  _86
REMARK   37  A    between atoms: _89  and  _91
REMARK   38  A    between atoms: _91  and  _92
REMARK   39  A    between atoms: _91  and  _94
REMARK   40  A    between atoms: _94  and  _95
REMARK   41  A    between atoms: _98  and  _100
REMARK   42  A    between atoms: _100  and  _101
REMARK   43  A    between atoms: _100  and  _103
REMARK   44  A    between atoms: _103  and  _104
REMARK   45  A    between atoms: _104  and  _105
REMARK   46  A    between atoms: _110  and  _112
REMARK   47  A    between atoms: _112  and  _113
REMARK   48  A    between atoms: _112  and  _115
REMARK   49  A    between atoms: _118  and  _120
REMARK   50  A    between atoms: _120  and  _121
REMARK   51  A    between atoms: _120  and  _123
REMARK   52  A    between atoms: _123  and  _124
REMARK   53  A    between atoms: _127  and  _129
REMARK   54  A    between atoms: _129  and  _130
REMARK   55  A    between atoms: _129  and  _132
REMARK   56  A    between atoms: _132  and  _133
REMARK   57  A    between atoms: _133  and  _134
REMARK   58  A    between atoms: _137  and  _139
REMARK   59  A    between atoms: _139  and  _140
REMARK   60  A    between atoms: _139  and  _142
REMARK   61  A    between atoms: _142  and  _143
REMARK   62  A    between atoms: _146  and  _148
REMARK   63  A    between atoms: _148  and  _149
REMARK   64  A    between atoms: _148  and  _151
REMARK   65  A    between atoms: _151  and  _152
REMARK   66  A    between atoms: _155  and  _157
REMARK   67  A    between atoms: _157  and  _158
REMARK   68  A    between atoms: _157  and  _160
REMARK   69  A    between atoms: _160  and  _161
REMARK   70  A    between atoms: _166  and  _168
REMARK   71  A    between atoms: _168  and  _169
REMARK   72  A    between atoms: _172  and  _174
REMARK   73  A    between atoms: _174  and  _175
REMARK   74  A    between atoms: _174  and  _177
REMARK   75  A    between atoms: _177  and  _178
REMARK   76  A    between atoms: _181  and  _183
REMARK   77  A    between atoms: _183  and  _184
REMARK   78  A    between atoms: _183  and  _186
REMARK   79  A    between atoms: _189  and  _191
REMARK   80  A    between atoms: _191  and  _192
REMARK   81  A    between atoms: _191  and  _194
REMARK   82  A    between atoms: _194  and  _195
REMARK   83  A    between atoms: _195  and  _196
REMARK   84  A    between atoms: _196  and  _197
REMARK   85  A    between atoms: _206  and  _208
REMARK   86  A    between atoms: _208  and  _209
REMARK   87  A    between atoms: _208  and  _211
REMARK   88  A    between atoms: _211  and  _212
REMARK   89  A    between atoms: _215  and  _217
REMARK   90  A    between atoms: _217  and  _218
REMARK   91  A    between atoms: _217  and  _220
REMARK   92  A    between atoms: _220  and  _221
REMARK   93  A    between atoms: _224  and  _226
REMARK   94  A    between atoms: _226  and  _227
REMARK   95  A    between atoms: _226  and  _229
REMARK   96  A    between atoms: _229  and  _230
REMARK   97  A    between atoms: _230  and  _231
REMARK   98  A    between atoms: _236  and  _238
REMARK   99  A    between atoms: _238  and  _239
REMARK  100  A    between atoms: _238  and  _241
REMARK  101  A    between atoms: _244  and  _246
REMARK  102  A    between atoms: _246  and  _247
REMARK  103  A    between atoms: _246  and  _249
REMARK  104  A    between atoms: _249  and  _250
REMARK  105  A    between atoms: _253  and  _255
REMARK  106  A    between atoms: _255  and  _256
REMARK  107  A    between atoms: _255  and  _258
REMARK  108  A    between atoms: _258  and  _259
REMARK  109  A    between atoms: _259  and  _260
REMARK  110  A    between atoms: _263  and  _265
REMARK  111  A    between atoms: _265  and  _266
REMARK  112  A    between atoms: _265  and  _268
REMARK  113  A    between atoms: _268  and  _269
REMARK  114  A    between atoms: _272  and  _274
REMARK  115  A    between atoms: _274  and  _275
REMARK  116  A    between atoms: _274  and  _277
REMARK  117  A    between atoms: _277  and  _278
REMARK  118  A    between atoms: _281  and  _283
REMARK  119  A    between atoms: _283  and  _284
REMARK  120  A    between atoms: _283  and  _286
REMARK  121  A    between atoms: _286  and  _287
REMARK  122  A    between atoms: _292  and  _294
REMARK  123  A    between atoms: _294  and  _295
REMARK  124  A    between atoms: _298  and  _300
REMARK  125  A    between atoms: _300  and  _301
REMARK  126  A    between atoms: _300  and  _303
REMARK  127  A    between atoms: _303  and  _304
REMARK  128  A    between atoms: _307  and  _309
REMARK  129  A    between atoms: _309  and  _310
REMARK  130  A    between atoms: _309  and  _312
REMARK  131  A    between atoms: _315  and  _317
REMARK  132  A    between atoms: _317  and  _318
REMARK  133  A    between atoms: _317  and  _320
REMARK  134  A    between atoms: _320  and  _321
REMARK  135  A    between atoms: _321  and  _322
REMARK  136  A    between atoms: _322  and  _323
REMARK  137  A    between atoms: _332  and  _334
REMARK  138  A    between atoms: _334  and  _335
REMARK  139  A    between atoms: _334  and  _337
REMARK  140  A    between atoms: _337  and  _338
REMARK  141  A    between atoms: _341  and  _343
REMARK  142  A    between atoms: _343  and  _344
REMARK  143  A    between atoms: _343  and  _346
REMARK  144  A    between atoms: _346  and  _347
REMARK  145  A    between atoms: _350  and  _352
REMARK  146  A    between atoms: _352  and  _353
REMARK  147  A    between atoms: _352  and  _355
REMARK  148  A    between atoms: _355  and  _356
REMARK  149  A    between atoms: _356  and  _357
REMARK  150  A    between atoms: _357  and  _358
REMARK  151  A    between atoms: _367  and  _369
REMARK  152  A    between atoms: _369  and  _370
REMARK  153  A    between atoms: _369  and  _372
REMARK  154  A    between atoms: _372  and  _373
REMARK  155  A    between atoms: _373  and  _374
REMARK  156  A    between atoms: _379  and  _381
REMARK  157  A    between atoms: _381  and  _382
REMARK  158  A    between atoms: _381  and  _384
REMARK  159  A    between atoms: _387  and  _389
REMARK  160  A    between atoms: _389  and  _390
REMARK  161  A    between atoms: _389  and  _392
REMARK  162  A    between atoms: _392  and  _393
REMARK  163  A    between atoms: _396  and  _398
REMARK  164  A    between atoms: _398  and  _399
REMARK  165  A    between atoms: _398  and  _401
REMARK  166  A    between atoms: _401  and  _402
REMARK  167  A    between atoms: _402  and  _403
REMARK  168  A    between atoms: _406  and  _408
REMARK  169  A    between atoms: _408  and  _409
REMARK  170  A    between atoms: _408  and  _411
REMARK  171  A    between atoms: _411  and  _412
REMARK  172  A    between atoms: _415  and  _417
REMARK  173  A    between atoms: _417  and  _418
REMARK  174  A    between atoms: _417  and  _420
REMARK  175  A    between atoms: _420  and  _421
REMARK  176  A    between atoms: _424  and  _426
REMARK  177  A    between atoms: _426  and  _427
REMARK  178  A    between atoms: _426  and  _429
REMARK  179  A    between atoms: _429  and  _430
REMARK  180  A    between atoms: _435  and  _437
REMARK  181  A    between atoms: _437  and  _438
REMARK  182  A    between atoms: _441  and  _443
REMARK  183  A    between atoms: _443  and  _444
REMARK  184  A    between atoms: _443  and  _446
REMARK  185  A    between atoms: _446  and  _447
REMARK  186  A    between atoms: _450  and  _452
REMARK  187  A    between atoms: _452  and  _453
REMARK  188  A    between atoms: _452  and  _455
REMARK  189  A    between atoms: _458  and  _460
REMARK  190  A    between atoms: _460  and  _461
REMARK  191  A    between atoms: _460  and  _463
REMARK  192  A    between atoms: _463  and  _464
REMARK  193  A    between atoms: _464  and  _465
REMARK  194  A    between atoms: _465  and  _466
REMARK  195  A    between atoms: _475  and  _477
REMARK  196  A    between atoms: _477  and  _478
REMARK  197  A    between atoms: _477  and  _480
REMARK  198  A    between atoms: _480  and  _481
REMARK  199  A    between atoms: _484  and  _486
REMARK  200  A    between atoms: _486  and  _487
REMARK  201  A    between atoms: _486  and  _489
REMARK  202  A    between atoms: _489  and  _490
REMARK  203  A    between atoms: _493  and  _495
REMARK  204  A    between atoms: _495  and  _496
REMARK  205  A    between atoms: _495  and  _498
REMARK  206  A    between atoms: _498  and  _499
REMARK  207  A    between atoms: _499  and  _500
REMARK  208  A    between atoms: _505  and  _507
REMARK  209  A    between atoms: _507  and  _508
REMARK  210  A    between atoms: _507  and  _510
REMARK  211  A    between atoms: _513  and  _515
REMARK  212  A    between atoms: _515  and  _516
REMARK  213  A    between atoms: _515  and  _518
REMARK  214  A    between atoms: _518  and  _519
REMARK  215  A    between atoms: _522  and  _524
REMARK  216  A    between atoms: _524  and  _525
REMARK  217  A    between atoms: _524  and  _527
REMARK  218  A    between atoms: _527  and  _528
REMARK  219  A    between atoms: _528  and  _529
REMARK  220  A    between atoms: _532  and  _534
REMARK  221  A    between atoms: _534  and  _535
REMARK  222  A    between atoms: _534  and  _537
REMARK  223  A    between atoms: _537  and  _538
REMARK  224  A    between atoms: _541  and  _543
REMARK  225  A    between atoms: _543  and  _544
REMARK  226  A    between atoms: _543  and  _546
REMARK  227  A    between atoms: _546  and  _547
REMARK  228  A    between atoms: _550  and  _552
REMARK  229  A    between atoms: _552  and  _553
REMARK  230  A    between atoms: _552  and  _555
REMARK  231  A    between atoms: _555  and  _556
REMARK  232  A    between atoms: _561  and  _563
REMARK  233  A    between atoms: _563  and  _564
REMARK  234  A    between atoms: _567  and  _569
REMARK  235  A    between atoms: _569  and  _570
REMARK  236  A    between atoms: _569  and  _572
REMARK  237  A    between atoms: _572  and  _573
REMARK  238  A    between atoms: _576  and  _578
REMARK  239  A    between atoms: _578  and  _579
REMARK  240  A    between atoms: _578  and  _581
REMARK  241  A    between atoms: _584  and  _586
REMARK  242  A    between atoms: _586  and  _587
REMARK  243  A    between atoms: _586  and  _589
REMARK  244  A    between atoms: _589  and  _590
REMARK  245  A    between atoms: _590  and  _591
REMARK  246  A    between atoms: _591  and  _592
REMARK  247  A    between atoms: _601  and  _603
REMARK  248  A    between atoms: _603  and  _604
REMARK  249  A    between atoms: _603  and  _606
REMARK  250  A    between atoms: _606  and  _607
REMARK  251  A    between atoms: _610  and  _612
REMARK  252  A    between atoms: _612  and  _613
REMARK  253  A    between atoms: _612  and  _615
REMARK  254  A    between atoms: _615  and  _616
REMARK  255  A    between atoms: _619  and  _621
REMARK  256  A    between atoms: _621  and  _622
REMARK  257  A    between atoms: _621  and  _624
REMARK  258  A    between atoms: _624  and  _625
REMARK  259  A    between atoms: _625  and  _626
REMARK  260  A    between atoms: _631  and  _633
REMARK  261  A    between atoms: _633  and  _634
REMARK  262  A    between atoms: _633  and  _636
REMARK  263  A    between atoms: _639  and  _641
REMARK  264  A    between atoms: _641  and  _642
REMARK  265  A    between atoms: _641  and  _644
REMARK  266  A    between atoms: _644  and  _645
REMARK                            x       y       z     vdW  Elec       q    Type
REMARK                         _______ _______ _______ _____ _____    ______ ____
ROOT
ATOM      1  CA  GLN A   1       0.783  -6.699  16.536  0.00  0.00    +0.145 C 
ENDROOT
BRANCH   1   2
ATOM      2  C   GLN A   1      -0.586  -7.232  16.139  0.00  0.00    +0.238 C 
ATOM      3  O   GLN A   1      -1.533  -7.158  16.916  0.00  0.00    -0.274 OA
ATOM      4  N   VAL A   2      -0.691  -7.776  14.933  0.00  0.00    -0.298 N 
ATOM      5  H   VAL A   2       0.137  -7.806  14.305  0.00  0.00    +0.150 HD
BRANCH   4   6
ATOM      6  CA  VAL A   2      -1.965  -8.333  14.483  0.00  0.00    +0.137 C 
BRANCH   6   7
ATOM      7  CB  VAL A   2      -1.853  -8.958  13.086  0.00  0.00    +0.026 C 
ATOM      8  CG2 VAL A   2      -3.129  -9.727  12.771  0.00  0.00    +0.002 C 
ATOM      9  CG1 VAL A   2      -1.609  -7.867  12.037  0.00  0.00    +0.002 C 
ENDBRANCH   6   7
BRANCH   6  10
ATOM     10  C   VAL A   2      -2.444  -9.425  15.449  0.00  0.00    +0.227 C 
ATOM     11  O   VAL A   2      -3.642  -9.571  15.691  0.00  0.00    -0.286 OA
ENDBRANCH   6  10
ENDBRANCH   4   6
ENDBRANCH   1   2
BRANCH   1  12
ATOM     12  N   GLN A   1       1.800  -7.692  16.237  0.00  0.00    -0.238 NA
ATOM     13  H   GLN A   1       2.517  -7.497  15.510  0.00  0.00    +0.142 HD
ENDBRANCH   1  12
BRANCH   1  14
ATOM     14  CB  GLN A   1       1.079  -5.394  15.805  0.00  0.00    +0.036 C 
BRANCH  14  15
ATOM     15  CG  GLN A   1      -0.006  -4.352  15.971  0.00  0.00    +0.087 C 
BRANCH  15  16
ATOM     16  CD  GLN A   1       0.419  -2.999  15.453  0.00  0.00    +0.219 C 
ATOM     17  OE1 GLN A   1       1.229  -2.318  16.065  0.00  0.00    -0.275 OA
ATOM     18  NE2 GLN A   1      -0.116  -2.611  14.314  0.00  0.00    -0.329 N 
ATOM     19 HE21 GLN A   1       0.147  -1.693  13.902  0.00  0.00    +0.145 HD
ATOM     20 HE22 GLN A   1      -0.802  -3.222  13.827  0.00  0.00    +0.145 HD
ENDBRANCH  15  16
ENDBRANCH  14  15
ENDBRANCH   1  14
TORSDOF 8
REMARK  Name = ../refined-set-2016/3v2q/3v2q_pocket.pdb
REMARK  266 active torsions:
REMARK  status: ('A' for Active; 'I' for Inactive)
REMARK    1  A    between atoms: _1  and  _3
REMARK    2  A    between atoms: _3  and  _4
REMARK    3  A    between atoms: _3  and  _6
REMARK    4  A    between atoms: _6  and  _7
REMARK    5  A    between atoms: _7  and  _8
REMARK    6  A    between atoms: _11  and  _13
REMARK    7  A    between atoms: _13  and  _14
REMARK    8  A    between atoms: _13  and  _16
REMARK    9  A    between atoms: _16  and  _17
REMARK   10  A    between atoms: _20  and  _22
REMARK   11  A    between atoms: _22  and  _23
REMARK   12  A    between atoms: _22  and  _25
REMARK   13  A    between atoms: _25  and  _26
REMARK   14  A    between atoms: _29  and  _31
REMARK   15  A    between atoms: _31  and  _32
REMARK   16  A    between atoms: _31  and  _34
REMARK   17  A    between atoms: _34  and  _35
REMARK   18  A    between atoms: _40  and  _42
REMARK   19  A    between atoms: _42  and  _43
REMARK   20  A    between atoms: _46  and  _48
REMARK   21  A    between atoms: _48  and  _49
REMARK   22  A    between atoms: _48  and  _51
REMARK   23  A    between atoms: _51  and  _52
REMARK   24  A    between atoms: _55  and  _57
REMARK   25  A    between atoms: _57  and  _58
REMARK   26  A    between atoms: _57  and  _60
REMARK   27  A    between atoms: _63  and  _65
REMARK   28  A    between atoms: _65  and  _66
REMARK   29  A    between atoms: _65  and  _68
REMARK   30  A    between atoms: _68  and  _69
REMARK   31  A    between atoms: _69  and  _70
REMARK   32  A    between atoms: _70  and  _71
REMARK   33  A    between atoms: _80  and  _82
REMARK   34  A    between atoms: _82  and  _83
REMARK   35  A    between atoms: _82  and  _85
REMARK   36  A    between atoms: _85  and  _86
REMARK   37  A    between atoms: _89  and  _91
REMARK   38  A    between atoms: _91  and  _92
REMARK   39  A    between atoms: _91  and  _94
REMARK   40  A    between atoms: _94  and  _95
REMARK   41  A    between atoms: _98  and  _100
REMARK   42  A    between atoms: _100  and  _101
REMARK   43  A    between atoms: _100  and  _103
REMARK   44  A    between atoms: _103  and  _104
REMARK   45  A    between atoms: _104  and  _105
REMARK   46  A    between atoms: _110  and  _112
REMARK   47  A    between atoms: _112  and  _113
REMARK   48  A    between atoms: _112  and  _115
REMARK   49  A    between atoms: _118  and  _120
REMARK   50  A    between atoms: _120  and  _121
REMARK   51  A    between atoms: _120  and  _123
REMARK   52  A    between atoms: _123  and  _124
REMARK   53  A    between atoms: _127  and  _129
REMARK   54  A    between atoms: _129  and  _130
REMARK   55  A    between atoms: _129  and  _132
REMARK   56  A    between atoms: _132  and  _133
REMARK   57  A    between atoms: _133  and  _134
REMARK   58  A    between atoms: _137  and  _139
REMARK   59  A    between atoms: _139  and  _140
REMARK   60  A    between atoms: _139  and  _142
REMARK   61  A    between atoms: _142  and  _143
REMARK   62  A    between atoms: _146  and  _148
REMARK   63  A    between atoms: _148  and  _149
REMARK   64  A    between atoms: _148  and  _151
REMARK   65  A    between atoms: _151  and  _152
REMARK   66  A    between atoms: _155  and  _157
REMARK   67  A    between atoms: _157  and  _158
REMARK   68  A    between atoms: _157  and  _160
REMARK   69  A    between atoms: _160  and  _161
REMARK   70  A    between atoms: _166  and  _168
REMARK   71  A    between atoms: _168  and  _169
REMARK   72  A    between atoms: _172  and  _174
REMARK   73  A    between atoms: _174  and  _175
REMARK   74  A    between atoms: _174  and  _177
REMARK   75  A    between atoms: _177  and  _178
REMARK   76  A    between atoms: _181  and  _183
REMARK   77  A    between atoms: _183  and  _184
REMARK   78  A    between atoms: _183  and  _186
REMARK   79  A    between atoms: _189  and  _191
REMARK   80  A    between atoms: _191  and  _192
REMARK   81  A    between atoms: _191  and  _194
REMARK   82  A    between atoms: _194  and  _195
REMARK   83  A    between atoms: _195  and  _196
REMARK   84  A    between atoms: _196  and  _197
REMARK   85  A    between atoms: _206  and  _208
REMARK   86  A    between atoms: _208  and  _209
REMARK   87  A    between atoms: _208  and  _211
REMARK   88  A    between atoms: _211  and  _212
REMARK   89  A    between atoms: _215  and  _217
REMARK   90  A    between atoms: _217  and  _218
REMARK   91  A    between atoms: _217  and  _220
REMARK   92  A    between atoms: _220  and  _221
REMARK   93  A    between atoms: _224  and  _226
REMARK   94  A    between atoms: _226  and  _227
REMARK   95  A    between atoms: _226  and  _229
REMARK   96  A    between atoms: _229  and  _230
REMARK   97  A    between atoms: _230  and  _231
REMARK   98  A    between atoms: _236  and  _238
REMARK   99  A    between atoms: _238  and  _239
REMARK  100  A    between atoms: _238  and  _241
REMARK  101  A    between atoms: _244  and  _246
REMARK  102  A    between atoms: _246  and  _247
REMARK  103  A    between atoms: _246  and  _249
REMARK  104  A    between atoms: _249  and  _250
REMARK  105  A    between atoms: _253  and  _255
REMARK  106  A    between atoms: _255  and  _256
REMARK  107  A    between atoms: _255  and  _258
REMARK  108  A    between atoms: _258  and  _259
REMARK  109  A    between atoms: _259  and  _260
REMARK  110  A    between atoms: _263  and  _265
REMARK  111  A    between atoms: _265  and  _266
REMARK  112  A    between atoms: _265  and  _268
REMARK  113  A    between atoms: _268  and  _269
REMARK  114  A    between atoms: _272  and  _274
REMARK  115  A    between atoms: _274  and  _275
REMARK  116  A    between atoms: _274  and  _277
REMARK  117  A    between atoms: _277  and  _278
REMARK  118  A    between atoms: _281  and  _283
REMARK  119  A    between atoms: _283  and  _284
REMARK  120  A    between atoms: _283  and  _286
REMARK  121  A    between atoms: _286  and  _287
REMARK  122  A    between atoms: _292  and  _294
REMARK  123  A    between atoms: _294  and  _295
REMARK  124  A    between atoms: _298  and  _300
REMARK  125  A    between atoms: _300  and  _301
REMARK  126  A    between atoms: _300  and  _303
REMARK  127  A    between atoms: _303  and  _304
REMARK  128  A    between atoms: _307  and  _309
REMARK  129  A    between atoms: _309  and  _310
REMARK  130  A    between atoms: _309  and  _312
REMARK  131  A    between atoms: _315  and  _317
REMARK  132  A    between atoms: _317  and  _318
REMARK  133  A    between atoms: _317  and  _320
REMARK  134  A    between atoms: _320  and  _321
REMARK  135  A    between atoms: _321  and  _322
REMARK  136  A    between atoms: _322  and  _323
REMARK  137  A    between atoms: _332  and  _334
REMARK  138  A    between atoms: _334  and  _335
REMARK  139  A    between atoms: _334  and  _337
REMARK  140  A    between atoms: _337  and  _338
REMARK  141  A    between atoms: _341  and  _343
REMARK  142  A    between atoms: _343  and  _344
REMARK  143  A    between atoms: _343  and  _346
REMARK  144  A    between atoms: _346  and  _347
REMARK  145  A    between atoms: _350  and  _352
REMARK  146  A    between atoms: _352  and  _353
REMARK  147  A    between atoms: _352  and  _355
REMARK  148  A    between atoms: _355  and  _356
REMARK  149  A    between atoms: _356  and  _357
REMARK  150  A    between atoms: _357  and  _358
REMARK  151  A    between atoms: _367  and  _369
REMARK  152  A    between atoms: _369  and  _370
REMARK  153  A    between atoms: _369  and  _372
REMARK  154  A    between atoms: _372  and  _373
REMARK  155  A    between atoms: _373  and  _374
REMARK  156  A    between atoms: _379  and  _381
REMARK  157  A    between atoms: _381  and  _382
REMARK  158  A    between atoms: _381  and  _384
REMARK  159  A    between atoms: _387  and  _389
REMARK  160  A    between atoms: _389  and  _390
REMARK  161  A    between atoms: _389  and  _392
REMARK  162  A    between atoms: _392  and  _393
REMARK  163  A    between atoms: _396  and  _398
REMARK  164  A    between atoms: _398  and  _399
REMARK  165  A    between atoms: _398  and  _401
REMARK  166  A    between atoms: _401  and  _402
REMARK  167  A    between atoms: _402  and  _403
REMARK  168  A    between atoms: _406  and  _408
REMARK  169  A    between atoms: _408  and  _409
REMARK  170  A    between atoms: _408  and  _411
REMARK  171  A    between atoms: _411  and  _412
REMARK  172  A    between atoms: _415  and  _417
REMARK  173  A    between atoms: _417  and  _418
REMARK  174  A    between atoms: _417  and  _420
REMARK  175  A    between atoms: _420  and  _421
REMARK  176  A    between atoms: _424  and  _426
REMARK  177  A    between atoms: _426  and  _427
REMARK  178  A    between atoms: _426  and  _429
REMARK  179  A    between atoms: _429  and  _430
REMARK  180  A    between atoms: _435  and  _437
REMARK  181  A    between atoms: _437  and  _438
REMARK  182  A    between atoms: _441  and  _443
REMARK  183  A    between atoms: _443  and  _444
REMARK  184  A    between atoms: _443  and  _446
REMARK  185  A    between atoms: _446  and  _447
REMARK  186  A    between atoms: _450  and  _452
REMARK  187  A    between atoms: _452  and  _453
REMARK  188  A    between atoms: _452  and  _455
REMARK  189  A    between atoms: _458  and  _460
REMARK  190  A    between atoms: _460  and  _461
REMARK  191  A    between atoms: _460  and  _463
REMARK  192  A    between atoms: _463  and  _464
REMARK  193  A    between atoms: _464  and  _465
REMARK  194  A    between atoms: _465  and  _466
REMARK  195  A    between atoms: _475  and  _477
REMARK  196  A    between atoms: _477  and  _478
REMARK  197  A    between atoms: _477  and  _480
REMARK  198  A    between atoms: _480  and  _481
REMARK  199  A    between atoms: _484  and  _486
REMARK  200  A    between atoms: _486  and  _487
REMARK  201  A    between atoms: _486  and  _489
REMARK  202  A    between atoms: _489  and  _490
REMARK  203  A    between atoms: _493  and  _495
REMARK  204  A    between atoms: _495  and  _496
REMARK  205  A    between atoms: _495  and  _498
REMARK  206  A    between atoms: _498  and  _499
REMARK  207  A    between atoms: _499  and  _500
REMARK  208  A    between atoms: _505  and  _507
REMARK  209  A    between atoms: _507  and  _508
REMARK  210  A    between atoms: _507  and  _510
REMARK  211  A    between atoms: _513  and  _515
REMARK  212  A    between atoms: _515  and  _516
REMARK  213  A    between atoms: _515  and  _518
REMARK  214  A    between atoms: _518  and  _519
REMARK  215  A    between atoms: _522  and  _524
REMARK  216  A    between atoms: _524  and  _525
REMARK  217  A    between atoms: _524  and  _527
REMARK  218  A    between atoms: _527  and  _528
REMARK  219  A    between atoms: _528  and  _529
REMARK  220  A    between atoms: _532  and  _534
REMARK  221  A    between atoms: _534  and  _535
REMARK  222  A    between atoms: _534  and  _537
REMARK  223  A    between atoms: _537  and  _538
REMARK  224  A    between atoms: _541  and  _543
REMARK  225  A    between atoms: _543  and  _544
REMARK  226  A    between atoms: _543  and  _546
REMARK  227  A    between atoms: _546  and  _547
REMARK  228  A    between atoms: _550  and  _552
REMARK  229  A    between atoms: _552  and  _553
REMARK  230  A    between atoms: _552  and  _555
REMARK  231  A    between atoms: _555  and  _556
REMARK  232  A    between atoms: _561  and  _563
REMARK  233  A    between atoms: _563  and  _564
REMARK  234  A    between atoms: _567  and  _569
REMARK  235  A    between atoms: _569  and  _570
REMARK  236  A    between atoms: _569  and  _572
REMARK  237  A    between atoms: _572  and  _573
REMARK  238  A    between atoms: _576  and  _578
REMARK  239  A    between atoms: _578  and  _579
REMARK  240  A    between atoms: _578  and  _581
REMARK  241  A    between atoms: _584  and  _586
REMARK  242  A    between atoms: _586  and  _587
REMARK  243  A    between atoms: _586  and  _589
REMARK  244  A    between atoms: _589  and  _590
REMARK  245  A    between atoms: _590  and  _591
REMARK  246  A    between atoms: _591  and  _592
REMARK  247  A    between atoms: _601  and  _603
REMARK  248  A    between atoms: _603  and  _604
REMARK  249  A    between atoms: _603  and  _606
REMARK  250  A    between atoms: _606  and  _607
REMARK  251  A    between atoms: _610  and  _612
REMARK  252  A    between atoms: _612  and  _613
REMARK  253  A    between atoms: _612  and  _615
REMARK  254  A    between atoms: _615  and  _616
REMARK  255  A    between atoms: _619  and  _621
REMARK  256  A    between atoms: _621  and  _622
REMARK  257  A    between atoms: _621  and  _624
REMARK  258  A    between atoms: _624  and  _625
REMARK  259  A    between atoms: _625  and  _626
REMARK  260  A    between atoms: _631  and  _633
REMARK  261  A    between atoms: _633  and  _634
REMARK  262  A    between atoms: _633  and  _636
REMARK  263  A    between atoms: _639  and  _641
REMARK  264  A    between atoms: _641  and  _642
REMARK  265  A    between atoms: _641  and  _644
REMARK  266  A    between atoms: _644  and  _645
REMARK                            x       y       z     vdW  Elec       q    Type
REMARK                         _______ _______ _______ _____ _____    ______ ____
ROOT
ATOM      1  CA  ILE A   1      -5.178  -7.101  18.227  0.00  0.00    +0.133 C 
ENDROOT
BRANCH   1   2
ATOM      2  N   ILE A   1      -3.890  -7.709  18.549  0.00  0.00    -0.239 NA
ATOM      3  H   ILE A   1      -3.107  -7.645  17.867  0.00  0.00    +0.142 HD
ENDBRANCH   1   2
BRANCH   1   4
ATOM      4  C   ILE A   1      -6.261  -8.166  18.078  0.00  0.00    +0.224 C 
ATOM      5  O   ILE A   1      -7.391  -7.973  18.533  0.00  0.00    -0.287 OA
ENDBRANCH   1   4
BRANCH   1   6
ATOM      6  CB  ILE A   1      -5.086  -6.246  16.937  0.00  0.00    +0.023 C 
ATOM      7  CG2 ILE A   1      -6.491  -5.869  16.436  0.00  0.00    +0.002 C 
BRANCH   6   8
ATOM      8  CG1 ILE A   1      -4.244  -4.993  17.217  0.00  0.00    +0.002 C 
ATOM      9  CD1 ILE A   1      -4.017  -4.097  16.001  0.00  0.00    +0.000 C 
ENDBRANCH   6   8
ENDBRANCH   1   6
TORSDOF 4
REMARK  Name = ../refined-set-2016/3v2q/3v2q_pocket.pdb
REMARK  266 active torsions:
REMARK  status: ('A' for Active; 'I' for Inactive)
REMARK    1  A    between atoms: _1  and  _3
REMARK    2  A    between atoms: _3  and  _4
REMARK    3  A    between atoms: _3  and  _6
REMARK    4  A    between atoms: _6  and  _7
REMARK    5  A    between atoms: _7  and  _8
REMARK    6  A    between atoms: _11  and  _13
REMARK    7  A    between atoms: _13  and  _14
REMARK    8  A    between atoms: _13  and  _16
REMARK    9  A    between atoms: _16  and  _17
REMARK   10  A    between atoms: _20  and  _22
REMARK   11  A    between atoms: _22  and  _23
REMARK   12  A    between atoms: _22  and  _25
REMARK   13  A    between atoms: _25  and  _26
REMARK   14  A    between atoms: _29  and  _31
REMARK   15  A    between atoms: _31  and  _32
REMARK   16  A    between atoms: _31  and  _34
REMARK   17  A    between atoms: _34  and  _35
REMARK   18  A    between atoms: _40  and  _42
REMARK   19  A    between atoms: _42  and  _43
REMARK   20  A    between atoms: _46  and  _48
REMARK   21  A    between atoms: _48  and  _49
REMARK   22  A    between atoms: _48  and  _51
REMARK   23  A    between atoms: _51  and  _52
REMARK   24  A    between atoms: _55  and  _57
REMARK   25  A    between atoms: _57  and  _58
REMARK   26  A    between atoms: _57  and  _60
REMARK   27  A    between atoms: _63  and  _65
REMARK   28  A    between atoms: _65  and  _66
REMARK   29  A    between atoms: _65  and  _68
REMARK   30  A    between atoms: _68  and  _69
REMARK   31  A    between atoms: _69  and  _70
REMARK   32  A    between atoms: _70  and  _71
REMARK   33  A    between atoms: _80  and  _82
REMARK   34  A    between atoms: _82  and  _83
REMARK   35  A    between atoms: _82  and  _85
REMARK   36  A    between atoms: _85  and  _86
REMARK   37  A    between atoms: _89  and  _91
REMARK   38  A    between atoms: _91  and  _92
REMARK   39  A    between atoms: _91  and  _94
REMARK   40  A    between atoms: _94  and  _95
REMARK   41  A    between atoms: _98  and  _100
REMARK   42  A    between atoms: _100  and  _101
REMARK   43  A    between atoms: _100  and  _103
REMARK   44  A    between atoms: _103  and  _104
REMARK   45  A    between atoms: _104  and  _105
REMARK   46  A    between atoms: _110  and  _112
REMARK   47  A    between atoms: _112  and  _113
REMARK   48  A    between atoms: _112  and  _115
REMARK   49  A    between atoms: _118  and  _120
REMARK   50  A    between atoms: _120  and  _121
REMARK   51  A    between atoms: _120  and  _123
REMARK   52  A    between atoms: _123  and  _124
REMARK   53  A    between atoms: _127  and  _129
REMARK   54  A    between atoms: _129  and  _130
REMARK   55  A    between atoms: _129  and  _132
REMARK   56  A    between atoms: _132  and  _133
REMARK   57  A    between atoms: _133  and  _134
REMARK   58  A    between atoms: _137  and  _139
REMARK   59  A    between atoms: _139  and  _140
REMARK   60  A    between atoms: _139  and  _142
REMARK   61  A    between atoms: _142  and  _143
REMARK   62  A    between atoms: _146  and  _148
REMARK   63  A    between atoms: _148  and  _149
REMARK   64  A    between atoms: _148  and  _151
REMARK   65  A    between atoms: _151  and  _152
REMARK   66  A    between atoms: _155  and  _157
REMARK   67  A    between atoms: _157  and  _158
REMARK   68  A    between atoms: _157  and  _160
REMARK   69  A    between atoms: _160  and  _161
REMARK   70  A    between atoms: _166  and  _168
REMARK   71  A    between atoms: _168  and  _169
REMARK   72  A    between atoms: _172  and  _174
REMARK   73  A    between atoms: _174  and  _175
REMARK   74  A    between atoms: _174  and  _177
REMARK   75  A    between atoms: _177  and  _178
REMARK   76  A    between atoms: _181  and  _183
REMARK   77  A    between atoms: _183  and  _184
REMARK   78  A    between atoms: _183  and  _186
REMARK   79  A    between atoms: _189  and  _191
REMARK   80  A    between atoms: _191  and  _192
REMARK   81  A    between atoms: _191  and  _194
REMARK   82  A    between atoms: _194  and  _195
REMARK   83  A    between atoms: _195  and  _196
REMARK   84  A    between atoms: _196  and  _197
REMARK   85  A    between atoms: _206  and  _208
REMARK   86  A    between atoms: _208  and  _209
REMARK   87  A    between atoms: _208  and  _211
REMARK   88  A    between atoms: _211  and  _212
REMARK   89  A    between atoms: _215  and  _217
REMARK   90  A    between atoms: _217  and  _218
REMARK   91  A    between atoms: _217  and  _220
REMARK   92  A    between atoms: _220  and  _221
REMARK   93  A    between atoms: _224  and  _226
REMARK   94  A    between atoms: _226  and  _227
REMARK   95  A    between atoms: _226  and  _229
REMARK   96  A    between atoms: _229  and  _230
REMARK   97  A    between atoms: _230  and  _231
REMARK   98  A    between atoms: _236  and  _238
REMARK   99  A    between atoms: _238  and  _239
REMARK  100  A    between atoms: _238  and  _241
REMARK  101  A    between atoms: _244  and  _246
REMARK  102  A    between atoms: _246  and  _247
REMARK  103  A    between atoms: _246  and  _249
REMARK  104  A    between atoms: _249  and  _250
REMARK  105  A    between atoms: _253  and  _255
REMARK  106  A    between atoms: _255  and  _256
REMARK  107  A    between atoms: _255  and  _258
REMARK  108  A    between atoms: _258  and  _259
REMARK  109  A    between atoms: _259  and  _260
REMARK  110  A    between atoms: _263  and  _265
REMARK  111  A    between atoms: _265  and  _266
REMARK  112  A    between atoms: _265  and  _268
REMARK  113  A    between atoms: _268  and  _269
REMARK  114  A    between atoms: _272  and  _274
REMARK  115  A    between atoms: _274  and  _275
REMARK  116  A    between atoms: _274  and  _277
REMARK  117  A    between atoms: _277  and  _278
REMARK  118  A    between atoms: _281  and  _283
REMARK  119  A    between atoms: _283  and  _284
REMARK  120  A    between atoms: _283  and  _286
REMARK  121  A    between atoms: _286  and  _287
REMARK  122  A    between atoms: _292  and  _294
REMARK  123  A    between atoms: _294  and  _295
REMARK  124  A    between atoms: _298  and  _300
REMARK  125  A    between atoms: _300  and  _301
REMARK  126  A    between atoms: _300  and  _303
REMARK  127  A    between atoms: _303  and  _304
REMARK  128  A    between atoms: _307  and  _309
REMARK  129  A    between atoms: _309  and  _310
REMARK  130  A    between atoms: _309  and  _312
REMARK  131  A    between atoms: _315  and  _317
REMARK  132  A    between atoms: _317  and  _318
REMARK  133  A    between atoms: _317  and  _320
REMARK  134  A    between atoms: _320  and  _321
REMARK  135  A    between atoms: _321  and  _322
REMARK  136  A    between atoms: _322  and  _323
REMARK  137  A    between atoms: _332  and  _334
REMARK  138  A    between atoms: _334  and  _335
REMARK  139  A    between atoms: _334  and  _337
REMARK  140  A    between atoms: _337  and  _338
REMARK  141  A    between atoms: _341  and  _343
REMARK  142  A    between atoms: _343  and  _344
REMARK  143  A    between atoms: _343  and  _346
REMARK  144  A    between atoms: _346  and  _347
REMARK  145  A    between atoms: _350  and  _352
REMARK  146  A    between atoms: _352  and  _353
REMARK  147  A    between atoms: _352  and  _355
REMARK  148  A    between atoms: _355  and  _356
REMARK  149  A    between atoms: _356  and  _357
REMARK  150  A    between atoms: _357  and  _358
REMARK  151  A    between atoms: _367  and  _369
REMARK  152  A    between atoms: _369  and  _370
REMARK  153  A    between atoms: _369  and  _372
REMARK  154  A    between atoms: _372  and  _373
REMARK  155  A    between atoms: _373  and  _374
REMARK  156  A    between atoms: _379  and  _381
REMARK  157  A    between atoms: _381  and  _382
REMARK  158  A    between atoms: _381  and  _384
REMARK  159  A    between atoms: _387  and  _389
REMARK  160  A    between atoms: _389  and  _390
REMARK  161  A    between atoms: _389  and  _392
REMARK  162  A    between atoms: _392  and  _393
REMARK  163  A    between atoms: _396  and  _398
REMARK  164  A    between atoms: _398  and  _399
REMARK  165  A    between atoms: _398  and  _401
REMARK  166  A    between atoms: _401  and  _402
REMARK  167  A    between atoms: _402  and  _403
REMARK  168  A    between atoms: _406  and  _408
REMARK  169  A    between atoms: _408  and  _409
REMARK  170  A    between atoms: _408  and  _411
REMARK  171  A    between atoms: _411  and  _412
REMARK  172  A    between atoms: _415  and  _417
REMARK  173  A    between atoms: _417  and  _418
REMARK  174  A    between atoms: _417  and  _420
REMARK  175  A    between atoms: _420  and  _421
REMARK  176  A    between atoms: _424  and  _426
REMARK  177  A    between atoms: _426  and  _427
REMARK  178  A    between atoms: _426  and  _429
REMARK  179  A    between atoms: _429  and  _430
REMARK  180  A    between atoms: _435  and  _437
REMARK  181  A    between atoms: _437  and  _438
REMARK  182  A    between atoms: _441  and  _443
REMARK  183  A    between atoms: _443  and  _444
REMARK  184  A    between atoms: _443  and  _446
REMARK  185  A    between atoms: _446  and  _447
REMARK  186  A    between atoms: _450  and  _452
REMARK  187  A    between atoms: _452  and  _453
REMARK  188  A    between atoms: _452  and  _455
REMARK  189  A    between atoms: _458  and  _460
REMARK  190  A    between atoms: _460  and  _461
REMARK  191  A    between atoms: _460  and  _463
REMARK  192  A    between atoms: _463  and  _464
REMARK  193  A    between atoms: _464  and  _465
REMARK  194  A    between atoms: _465  and  _466
REMARK  195  A    between atoms: _475  and  _477
REMARK  196  A    between atoms: _477  and  _478
REMARK  197  A    between atoms: _477  and  _480
REMARK  198  A    between atoms: _480  and  _481
REMARK  199  A    between atoms: _484  and  _486
REMARK  200  A    between atoms: _486  and  _487
REMARK  201  A    between atoms: _486  and  _489
REMARK  202  A    between atoms: _489  and  _490
REMARK  203  A    between atoms: _493  and  _495
REMARK  204  A    between atoms: _495  and  _496
REMARK  205  A    between atoms: _495  and  _498
REMARK  206  A    between atoms: _498  and  _499
REMARK  207  A    between atoms: _499  and  _500
REMARK  208  A    between atoms: _505  and  _507
REMARK  209  A    between atoms: _507  and  _508
REMARK  210  A    between atoms: _507  and  _510
REMARK  211  A    between atoms: _513  and  _515
REMARK  212  A    between atoms: _515  and  _516
REMARK  213  A    between atoms: _515  and  _518
REMARK  214  A    between atoms: _518  and  _519
REMARK  215  A    between atoms: _522  and  _524
REMARK  216  A    between atoms: _524  and  _525
REMARK  217  A    between atoms: _524  and  _527
REMARK  218  A    between atoms: _527  and  _528
REMARK  219  A    between atoms: _528  and  _529
REMARK  220  A    between atoms: _532  and  _534
REMARK  221  A    between atoms: _534  and  _535
REMARK  222  A    between atoms: _534  and  _537
REMARK  223  A    between atoms: _537  and  _538
REMARK  224  A    between atoms: _541  and  _543
REMARK  225  A    between atoms: _543  and  _544
REMARK  226  A    between atoms: _543  and  _546
REMARK  227  A    between atoms: _546  and  _547
REMARK  228  A    between atoms: _550  and  _552
REMARK  229  A    between atoms: _552  and  _553
REMARK  230  A    between atoms: _552  and  _555
REMARK  231  A    between atoms: _555  and  _556
REMARK  232  A    between atoms: _561  and  _563
REMARK  233  A    between atoms: _563  and  _564
REMARK  234  A    between atoms: _567  and  _569
REMARK  235  A    between atoms: _569  and  _570
REMARK  236  A    between atoms: _569  and  _572
REMARK  237  A    between atoms: _572  and  _573
REMARK  238  A    between atoms: _576  and  _578
REMARK  239  A    between atoms: _578  and  _579
REMARK  240  A    between atoms: _578  and  _581
REMARK  241  A    between atoms: _584  and  _586
REMARK  242  A    between atoms: _586  and  _587
REMARK  243  A    between atoms: _586  and  _589
REMARK  244  A    between atoms: _589  and  _590
REMARK  245  A    between atoms: _590  and  _591
REMARK  246  A    between atoms: _591  and  _592
REMARK  247  A    between atoms: _601  and  _603
REMARK  248  A    between atoms: _603  and  _604
REMARK  249  A    between atoms: _603  and  _606
REMARK  250  A    between atoms: _606  and  _607
REMARK  251  A    between atoms: _610  and  _612
REMARK  252  A    between atoms: _612  and  _613
REMARK  253  A    between atoms: _612  and  _615
REMARK  254  A    between atoms: _615  and  _616
REMARK  255  A    between atoms: _619  and  _621
REMARK  256  A    between atoms: _621  and  _622
REMARK  257  A    between atoms: _621  and  _624
REMARK  258  A    between atoms: _624  and  _625
REMARK  259  A    between atoms: _625  and  _626
REMARK  260  A    between atoms: _631  and  _633
REMARK  261  A    between atoms: _633  and  _634
REMARK  262  A    between atoms: _633  and  _636
REMARK  263  A    between atoms: _639  and  _641
REMARK  264  A    between atoms: _641  and  _642
REMARK  265  A    between atoms: _641  and  _644
REMARK  266  A    between atoms: _644  and  _645
REMARK                            x       y       z     vdW  Elec       q    Type
REMARK                         _______ _______ _______ _____ _____    ______ ____
ROOT
ATOM      1  C   GLU A   1      15.634  -6.594  -3.652  0.00  0.00    +0.238 C 
ATOM      2  O   GLU A   1      14.765  -6.606  -2.786  0.00  0.00    -0.274 OA
ATOM      3  N   LEU A   2      15.452  -6.010  -4.832  0.00  0.00    -0.298 N 
ATOM      4  H   LEU A   2      16.221  -6.022  -5.532  0.00  0.00    +0.150 HD
ENDROOT
BRANCH   1   5
ATOM      5  CA  GLU A   1      16.992  -7.263  -3.406  0.00  0.00    +0.145 C 
BRANCH   5   6
ATOM      6  N   GLU A   1      17.372  -8.000  -4.603  0.00  0.00    -0.238 NA
ATOM      7  H   GLU A   1      18.166  -7.667  -5.187  0.00  0.00    +0.142 HD
ENDBRANCH   5   6
BRANCH   5   8
ATOM      8  CB  GLU A   1      18.034  -6.190  -3.054  0.00  0.00    +0.038 C 
BRANCH   8   9
ATOM      9  CG  GLU A   1      19.351  -6.698  -2.471  0.00  0.00    +0.116 C 
BRANCH   9  10
ATOM     10  CD  GLU A   1      19.175  -7.480  -1.173  0.00  0.00    +0.365 C 
ATOM     11  OE2 GLU A   1      18.562  -6.950  -0.220  0.00  0.00    -0.246 OA
ATOM     12  OE1 GLU A   1      19.656  -8.628  -1.106  0.00  0.00    -0.246 OA
ENDBRANCH   9  10
ENDBRANCH   8   9
ENDBRANCH   5   8
ENDBRANCH   1   5
BRANCH   3  13
ATOM     13  CA  LEU A   2      14.186  -5.349  -5.164  0.00  0.00    +0.137 C 
BRANCH  13  14
ATOM     14  C   LEU A   2      13.019  -6.333  -5.163  0.00  0.00    +0.227 C 
ATOM     15  O   LEU A   2      11.928  -6.007  -4.695  0.00  0.00    -0.286 OA
ENDBRANCH  13  14
BRANCH  13  16
ATOM     16  CB  LEU A   2      14.280  -4.656  -6.528  0.00  0.00    +0.028 C 
BRANCH  16  17
ATOM     17  CG  LEU A   2      15.275  -3.480  -6.564  0.00  0.00    +0.002 C 
ATOM     18  CD2 LEU A   2      14.851  -2.446  -5.551  0.00  0.00    +0.000 C 
ATOM     19  CD1 LEU A   2      15.337  -2.863  -7.952  0.00  0.00    +0.000 C 
ENDBRANCH  16  17
ENDBRANCH  13  16
ENDBRANCH   3  13
TORSDOF 9
REMARK  Name = ../refined-set-2016/3v2q/3v2q_pocket.pdb
REMARK  266 active torsions:
REMARK  status: ('A' for Active; 'I' for Inactive)
REMARK    1  A    between atoms: _1  and  _3
REMARK    2  A    between atoms: _3  and  _4
REMARK    3  A    between atoms: _3  and  _6
REMARK    4  A    between atoms: _6  and  _7
REMARK    5  A    between atoms: _7  and  _8
REMARK    6  A    between atoms: _11  and  _13
REMARK    7  A    between atoms: _13  and  _14
REMARK    8  A    between atoms: _13  and  _16
REMARK    9  A    between atoms: _16  and  _17
REMARK   10  A    between atoms: _20  and  _22
REMARK   11  A    between atoms: _22  and  _23
REMARK   12  A    between atoms: _22  and  _25
REMARK   13  A    between atoms: _25  and  _26
REMARK   14  A    between atoms: _29  and  _31
REMARK   15  A    between atoms: _31  and  _32
REMARK   16  A    between atoms: _31  and  _34
REMARK   17  A    between atoms: _34  and  _35
REMARK   18  A    between atoms: _40  and  _42
REMARK   19  A    between atoms: _42  and  _43
REMARK   20  A    between atoms: _46  and  _48
REMARK   21  A    between atoms: _48  and  _49
REMARK   22  A    between atoms: _48  and  _51
REMARK   23  A    between atoms: _51  and  _52
REMARK   24  A    between atoms: _55  and  _57
REMARK   25  A    between atoms: _57  and  _58
REMARK   26  A    between atoms: _57  and  _60
REMARK   27  A    between atoms: _63  and  _65
REMARK   28  A    between atoms: _65  and  _66
REMARK   29  A    between atoms: _65  and  _68
REMARK   30  A    between atoms: _68  and  _69
REMARK   31  A    between atoms: _69  and  _70
REMARK   32  A    between atoms: _70  and  _71
REMARK   33  A    between atoms: _80  and  _82
REMARK   34  A    between atoms: _82  and  _83
REMARK   35  A    between atoms: _82  and  _85
REMARK   36  A    between atoms: _85  and  _86
REMARK   37  A    between atoms: _89  and  _91
REMARK   38  A    between atoms: _91  and  _92
REMARK   39  A    between atoms: _91  and  _94
REMARK   40  A    between atoms: _94  and  _95
REMARK   41  A    between atoms: _98  and  _100
REMARK   42  A    between atoms: _100  and  _101
REMARK   43  A    between atoms: _100  and  _103
REMARK   44  A    between atoms: _103  and  _104
REMARK   45  A    between atoms: _104  and  _105
REMARK   46  A    between atoms: _110  and  _112
REMARK   47  A    between atoms: _112  and  _113
REMARK   48  A    between atoms: _112  and  _115
REMARK   49  A    between atoms: _118  and  _120
REMARK   50  A    between atoms: _120  and  _121
REMARK   51  A    between atoms: _120  and  _123
REMARK   52  A    between atoms: _123  and  _124
REMARK   53  A    between atoms: _127  and  _129
REMARK   54  A    between atoms: _129  and  _130
REMARK   55  A    between atoms: _129  and  _132
REMARK   56  A    between atoms: _132  and  _133
REMARK   57  A    between atoms: _133  and  _134
REMARK   58  A    between atoms: _137  and  _139
REMARK   59  A    between atoms: _139  and  _140
REMARK   60  A    between atoms: _139  and  _142
REMARK   61  A    between atoms: _142  and  _143
REMARK   62  A    between atoms: _146  and  _148
REMARK   63  A    between atoms: _148  and  _149
REMARK   64  A    between atoms: _148  and  _151
REMARK   65  A    between atoms: _151  and  _152
REMARK   66  A    between atoms: _155  and  _157
REMARK   67  A    between atoms: _157  and  _158
REMARK   68  A    between atoms: _157  and  _160
REMARK   69  A    between atoms: _160  and  _161
REMARK   70  A    between atoms: _166  and  _168
REMARK   71  A    between atoms: _168  and  _169
REMARK   72  A    between atoms: _172  and  _174
REMARK   73  A    between atoms: _174  and  _175
REMARK   74  A    between atoms: _174  and  _177
REMARK   75  A    between atoms: _177  and  _178
REMARK   76  A    between atoms: _181  and  _183
REMARK   77  A    between atoms: _183  and  _184
REMARK   78  A    between atoms: _183  and  _186
REMARK   79  A    between atoms: _189  and  _191
REMARK   80  A    between atoms: _191  and  _192
REMARK   81  A    between atoms: _191  and  _194
REMARK   82  A    between atoms: _194  and  _195
REMARK   83  A    between atoms: _195  and  _196
REMARK   84  A    between atoms: _196  and  _197
REMARK   85  A    between atoms: _206  and  _208
REMARK   86  A    between atoms: _208  and  _209
REMARK   87  A    between atoms: _208  and  _211
REMARK   88  A    between atoms: _211  and  _212
REMARK   89  A    between atoms: _215  and  _217
REMARK   90  A    between atoms: _217  and  _218
REMARK   91  A    between atoms: _217  and  _220
REMARK   92  A    between atoms: _220  and  _221
REMARK   93  A    between atoms: _224  and  _226
REMARK   94  A    between atoms: _226  and  _227
REMARK   95  A    between atoms: _226  and  _229
REMARK   96  A    between atoms: _229  and  _230
REMARK   97  A    between atoms: _230  and  _231
REMARK   98  A    between atoms: _236  and  _238
REMARK   99  A    between atoms: _238  and  _239
REMARK  100  A    between atoms: _238  and  _241
REMARK  101  A    between atoms: _244  and  _246
REMARK  102  A    between atoms: _246  and  _247
REMARK  103  A    between atoms: _246  and  _249
REMARK  104  A    between atoms: _249  and  _250
REMARK  105  A    between atoms: _253  and  _255
REMARK  106  A    between atoms: _255  and  _256
REMARK  107  A    between atoms: _255  and  _258
REMARK  108  A    between atoms: _258  and  _259
REMARK  109  A    between atoms: _259  and  _260
REMARK  110  A    between atoms: _263  and  _265
REMARK  111  A    between atoms: _265  and  _266
REMARK  112  A    between atoms: _265  and  _268
REMARK  113  A    between atoms: _268  and  _269
REMARK  114  A    between atoms: _272  and  _274
REMARK  115  A    between atoms: _274  and  _275
REMARK  116  A    between atoms: _274  and  _277
REMARK  117  A    between atoms: _277  and  _278
REMARK  118  A    between atoms: _281  and  _283
REMARK  119  A    between atoms: _283  and  _284
REMARK  120  A    between atoms: _283  and  _286
REMARK  121  A    between atoms: _286  and  _287
REMARK  122  A    between atoms: _292  and  _294
REMARK  123  A    between atoms: _294  and  _295
REMARK  124  A    between atoms: _298  and  _300
REMARK  125  A    between atoms: _300  and  _301
REMARK  126  A    between atoms: _300  and  _303
REMARK  127  A    between atoms: _303  and  _304
REMARK  128  A    between atoms: _307  and  _309
REMARK  129  A    between atoms: _309  and  _310
REMARK  130  A    between atoms: _309  and  _312
REMARK  131  A    between atoms: _315  and  _317
REMARK  132  A    between atoms: _317  and  _318
REMARK  133  A    between atoms: _317  and  _320
REMARK  134  A    between atoms: _320  and  _321
REMARK  135  A    between atoms: _321  and  _322
REMARK  136  A    between atoms: _322  and  _323
REMARK  137  A    between atoms: _332  and  _334
REMARK  138  A    between atoms: _334  and  _335
REMARK  139  A    between atoms: _334  and  _337
REMARK  140  A    between atoms: _337  and  _338
REMARK  141  A    between atoms: _341  and  _343
REMARK  142  A    between atoms: _343  and  _344
REMARK  143  A    between atoms: _343  and  _346
REMARK  144  A    between atoms: _346  and  _347
REMARK  145  A    between atoms: _350  and  _352
REMARK  146  A    between atoms: _352  and  _353
REMARK  147  A    between atoms: _352  and  _355
REMARK  148  A    between atoms: _355  and  _356
REMARK  149  A    between atoms: _356  and  _357
REMARK  150  A    between atoms: _357  and  _358
REMARK  151  A    between atoms: _367  and  _369
REMARK  152  A    between atoms: _369  and  _370
REMARK  153  A    between atoms: _369  and  _372
REMARK  154  A    between atoms: _372  and  _373
REMARK  155  A    between atoms: _373  and  _374
REMARK  156  A    between atoms: _379  and  _381
REMARK  157  A    between atoms: _381  and  _382
REMARK  158  A    between atoms: _381  and  _384
REMARK  159  A    between atoms: _387  and  _389
REMARK  160  A    between atoms: _389  and  _390
REMARK  161  A    between atoms: _389  and  _392
REMARK  162  A    between atoms: _392  and  _393
REMARK  163  A    between atoms: _396  and  _398
REMARK  164  A    between atoms: _398  and  _399
REMARK  165  A    between atoms: _398  and  _401
REMARK  166  A    between atoms: _401  and  _402
REMARK  167  A    between atoms: _402  and  _403
REMARK  168  A    between atoms: _406  and  _408
REMARK  169  A    between atoms: _408  and  _409
REMARK  170  A    between atoms: _408  and  _411
REMARK  171  A    between atoms: _411  and  _412
REMARK  172  A    between atoms: _415  and  _417
REMARK  173  A    between atoms: _417  and  _418
REMARK  174  A    between atoms: _417  and  _420
REMARK  175  A    between atoms: _420  and  _421
REMARK  176  A    between atoms: _424  and  _426
REMARK  177  A    between atoms: _426  and  _427
REMARK  178  A    between atoms: _426  and  _429
REMARK  179  A    between atoms: _429  and  _430
REMARK  180  A    between atoms: _435  and  _437
REMARK  181  A    between atoms: _437  and  _438
REMARK  182  A    between atoms: _441  and  _443
REMARK  183  A    between atoms: _443  and  _444
REMARK  184  A    between atoms: _443  and  _446
REMARK  185  A    between atoms: _446  and  _447
REMARK  186  A    between atoms: _450  and  _452
REMARK  187  A    between atoms: _452  and  _453
REMARK  188  A    between atoms: _452  and  _455
REMARK  189  A    between atoms: _458  and  _460
REMARK  190  A    between atoms: _460  and  _461
REMARK  191  A    between atoms: _460  and  _463
REMARK  192  A    between atoms: _463  and  _464
REMARK  193  A    between atoms: _464  and  _465
REMARK  194  A    between atoms: _465  and  _466
REMARK  195  A    between atoms: _475  and  _477
REMARK  196  A    between atoms: _477  and  _478
REMARK  197  A    between atoms: _477  and  _480
REMARK  198  A    between atoms: _480  and  _481
REMARK  199  A    between atoms: _484  and  _486
REMARK  200  A    between atoms: _486  and  _487
REMARK  201  A    between atoms: _486  and  _489
REMARK  202  A    between atoms: _489  and  _490
REMARK  203  A    between atoms: _493  and  _495
REMARK  204  A    between atoms: _495  and  _496
REMARK  205  A    between atoms: _495  and  _498
REMARK  206  A    between atoms: _498  and  _499
REMARK  207  A    between atoms: _499  and  _500
REMARK  208  A    between atoms: _505  and  _507
REMARK  209  A    between atoms: _507  and  _508
REMARK  210  A    between atoms: _507  and  _510
REMARK  211  A    between atoms: _513  and  _515
REMARK  212  A    between atoms: _515  and  _516
REMARK  213  A    between atoms: _515  and  _518
REMARK  214  A    between atoms: _518  and  _519
REMARK  215  A    between atoms: _522  and  _524
REMARK  216  A    between atoms: _524  and  _525
REMARK  217  A    between atoms: _524  and  _527
REMARK  218  A    between atoms: _527  and  _528
REMARK  219  A    between atoms: _528  and  _529
REMARK  220  A    between atoms: _532  and  _534
REMARK  221  A    between atoms: _534  and  _535
REMARK  222  A    between atoms: _534  and  _537
REMARK  223  A    between atoms: _537  and  _538
REMARK  224  A    between atoms: _541  and  _543
REMARK  225  A    between atoms: _543  and  _544
REMARK  226  A    between atoms: _543  and  _546
REMARK  227  A    between atoms: _546  and  _547
REMARK  228  A    between atoms: _550  and  _552
REMARK  229  A    between atoms: _552  and  _553
REMARK  230  A    between atoms: _552  and  _555
REMARK  231  A    between atoms: _555  and  _556
REMARK  232  A    between atoms: _561  and  _563
REMARK  233  A    between atoms: _563  and  _564
REMARK  234  A    between atoms: _567  and  _569
REMARK  235  A    between atoms: _569  and  _570
REMARK  236  A    between atoms: _569  and  _572
REMARK  237  A    between atoms: _572  and  _573
REMARK  238  A    between atoms: _576  and  _578
REMARK  239  A    between atoms: _578  and  _579
REMARK  240  A    between atoms: _578  and  _581
REMARK  241  A    between atoms: _584  and  _586
REMARK  242  A    between atoms: _586  and  _587
REMARK  243  A    between atoms: _586  and  _589
REMARK  244  A    between atoms: _589  and  _590
REMARK  245  A    between atoms: _590  and  _591
REMARK  246  A    between atoms: _591  and  _592
REMARK  247  A    between atoms: _601  and  _603
REMARK  248  A    between atoms: _603  and  _604
REMARK  249  A    between atoms: _603  and  _606
REMARK  250  A    between atoms: _606  and  _607
REMARK  251  A    between atoms: _610  and  _612
REMARK  252  A    between atoms: _612  and  _613
REMARK  253  A    between atoms: _612  and  _615
REMARK  254  A    between atoms: _615  and  _616
REMARK  255  A    between atoms: _619  and  _621
REMARK  256  A    between atoms: _621  and  _622
REMARK  257  A    between atoms: _621  and  _624
REMARK  258  A    between atoms: _624  and  _625
REMARK  259  A    between atoms: _625  and  _626
REMARK  260  A    between atoms: _631  and  _633
REMARK  261  A    between atoms: _633  and  _634
REMARK  262  A    between atoms: _633  and  _636
REMARK  263  A    between atoms: _639  and  _641
REMARK  264  A    between atoms: _641  and  _642
REMARK  265  A    between atoms: _641  and  _644
REMARK  266  A    between atoms: _644  and  _645
REMARK                            x       y       z     vdW  Elec       q    Type
REMARK                         _______ _______ _______ _____ _____    ______ ____
ROOT
ATOM      1  C   THR A   1       9.834  -6.025  -1.556  0.00  0.00    +0.241 C 
ATOM      2  O   THR A   1       8.994  -5.856  -0.669  0.00  0.00    -0.274 OA
ATOM      3  N   ASN A   2       9.510  -6.347  -2.805  0.00  0.00    -0.298 N 
ATOM      4  H   ASN A   2      10.259  -6.468  -3.516  0.00  0.00    +0.150 HD
ENDROOT
BRANCH   1   5
ATOM      5  CA  THR A   1      11.315  -5.863  -1.258  0.00  0.00    +0.172 C 
BRANCH   5   6
ATOM      6  N   THR A   1      12.055  -7.002  -1.789  0.00  0.00    -0.236 NA
ATOM      7  H   THR A   1      12.781  -6.843  -2.516  0.00  0.00    +0.142 HD
ENDBRANCH   5   6
BRANCH   5   8
ATOM      8  CB  THR A   1      11.792  -4.534  -1.883  0.00  0.00    +0.135 C 
ATOM      9  CG2 THR A   1      10.959  -3.360  -1.341  0.00  0.00    +0.034 C 
BRANCH   8  10
ATOM     10  OG1 THR A   1      13.172  -4.324  -1.557  0.00  0.00    -0.383 OA
ATOM     11  HG1 THR A   1      13.712  -5.072  -1.916  0.00  0.00    +0.210 HD
ENDBRANCH   8  10
ENDBRANCH   5   8
ENDBRANCH   1   5
BRANCH   3  12
ATOM     12  CA  ASN A   2       8.115  -6.532  -3.187  0.00  0.00    +0.146 C 
BRANCH  12  13
ATOM     13  C   ASN A   2       7.488  -7.747  -2.512  0.00  0.00    +0.227 C 
ATOM     14  O   ASN A   2       6.299  -7.746  -2.218  0.00  0.00    -0.286 OA
ENDBRANCH  12  13
BRANCH  12  15
ATOM     15  CB  ASN A   2       7.971  -6.647  -4.707  0.00  0.00    +0.112 C 
BRANCH  15  16
ATOM     16  CG  ASN A   2       8.096  -5.305  -5.403  0.00  0.00    +0.222 C 
ATOM     17  OD1 ASN A   2       7.518  -4.315  -4.960  0.00  0.00    -0.275 OA
ATOM     18  ND2 ASN A   2       8.843  -5.266  -6.500  0.00  0.00    -0.329 N 
ATOM     19 HD21 ASN A   2       9.314  -6.129  -6.839  0.00  0.00    +0.145 HD
ATOM     20 HD22 ASN A   2       8.957  -4.373  -7.020  0.00  0.00    +0.145 HD
ENDBRANCH  15  16
ENDBRANCH  12  15
ENDBRANCH   3  12
TORSDOF 8
REMARK  Name = ../refined-set-2016/3v2q/3v2q_pocket.pdb
REMARK  266 active torsions:
REMARK  status: ('A' for Active; 'I' for Inactive)
REMARK    1  A    between atoms: _1  and  _3
REMARK    2  A    between atoms: _3  and  _4
REMARK    3  A    between atoms: _3  and  _6
REMARK    4  A    between atoms: _6  and  _7
REMARK    5  A    between atoms: _7  and  _8
REMARK    6  A    between atoms: _11  and  _13
REMARK    7  A    between atoms: _13  and  _14
REMARK    8  A    between atoms: _13  and  _16
REMARK    9  A    between atoms: _16  and  _17
REMARK   10  A    between atoms: _20  and  _22
REMARK   11  A    between atoms: _22  and  _23
REMARK   12  A    between atoms: _22  and  _25
REMARK   13  A    between atoms: _25  and  _26
REMARK   14  A    between atoms: _29  and  _31
REMARK   15  A    between atoms: _31  and  _32
REMARK   16  A    between atoms: _31  and  _34
REMARK   17  A    between atoms: _34  and  _35
REMARK   18  A    between atoms: _40  and  _42
REMARK   19  A    between atoms: _42  and  _43
REMARK   20  A    between atoms: _46  and  _48
REMARK   21  A    between atoms: _48  and  _49
REMARK   22  A    between atoms: _48  and  _51
REMARK   23  A    between atoms: _51  and  _52
REMARK   24  A    between atoms: _55  and  _57
REMARK   25  A    between atoms: _57  and  _58
REMARK   26  A    between atoms: _57  and  _60
REMARK   27  A    between atoms: _63  and  _65
REMARK   28  A    between atoms: _65  and  _66
REMARK   29  A    between atoms: _65  and  _68
REMARK   30  A    between atoms: _68  and  _69
REMARK   31  A    between atoms: _69  and  _70
REMARK   32  A    between atoms: _70  and  _71
REMARK   33  A    between atoms: _80  and  _82
REMARK   34  A    between atoms: _82  and  _83
REMARK   35  A    between atoms: _82  and  _85
REMARK   36  A    between atoms: _85  and  _86
REMARK   37  A    between atoms: _89  and  _91
REMARK   38  A    between atoms: _91  and  _92
REMARK   39  A    between atoms: _91  and  _94
REMARK   40  A    between atoms: _94  and  _95
REMARK   41  A    between atoms: _98  and  _100
REMARK   42  A    between atoms: _100  and  _101
REMARK   43  A    between atoms: _100  and  _103
REMARK   44  A    between atoms: _103  and  _104
REMARK   45  A    between atoms: _104  and  _105
REMARK   46  A    between atoms: _110  and  _112
REMARK   47  A    between atoms: _112  and  _113
REMARK   48  A    between atoms: _112  and  _115
REMARK   49  A    between atoms: _118  and  _120
REMARK   50  A    between atoms: _120  and  _121
REMARK   51  A    between atoms: _120  and  _123
REMARK   52  A    between atoms: _123  and  _124
REMARK   53  A    between atoms: _127  and  _129
REMARK   54  A    between atoms: _129  and  _130
REMARK   55  A    between atoms: _129  and  _132
REMARK   56  A    between atoms: _132  and  _133
REMARK   57  A    between atoms: _133  and  _134
REMARK   58  A    between atoms: _137  and  _139
REMARK   59  A    between atoms: _139  and  _140
REMARK   60  A    between atoms: _139  and  _142
REMARK   61  A    between atoms: _142  and  _143
REMARK   62  A    between atoms: _146  and  _148
REMARK   63  A    between atoms: _148  and  _149
REMARK   64  A    between atoms: _148  and  _151
REMARK   65  A    between atoms: _151  and  _152
REMARK   66  A    between atoms: _155  and  _157
REMARK   67  A    between atoms: _157  and  _158
REMARK   68  A    between atoms: _157  and  _160
REMARK   69  A    between atoms: _160  and  _161
REMARK   70  A    between atoms: _166  and  _168
REMARK   71  A    between atoms: _168  and  _169
REMARK   72  A    between atoms: _172  and  _174
REMARK   73  A    between atoms: _174  and  _175
REMARK   74  A    between atoms: _174  and  _177
REMARK   75  A    between atoms: _177  and  _178
REMARK   76  A    between atoms: _181  and  _183
REMARK   77  A    between atoms: _183  and  _184
REMARK   78  A    between atoms: _183  and  _186
REMARK   79  A    between atoms: _189  and  _191
REMARK   80  A    between atoms: _191  and  _192
REMARK   81  A    between atoms: _191  and  _194
REMARK   82  A    between atoms: _194  and  _195
REMARK   83  A    between atoms: _195  and  _196
REMARK   84  A    between atoms: _196  and  _197
REMARK   85  A    between atoms: _206  and  _208
REMARK   86  A    between atoms: _208  and  _209
REMARK   87  A    between atoms: _208  and  _211
REMARK   88  A    between atoms: _211  and  _212
REMARK   89  A    between atoms: _215  and  _217
REMARK   90  A    between atoms: _217  and  _218
REMARK   91  A    between atoms: _217  and  _220
REMARK   92  A    between atoms: _220  and  _221
REMARK   93  A    between atoms: _224  and  _226
REMARK   94  A    between atoms: _226  and  _227
REMARK   95  A    between atoms: _226  and  _229
REMARK   96  A    between atoms: _229  and  _230
REMARK   97  A    between atoms: _230  and  _231
REMARK   98  A    between atoms: _236  and  _238
REMARK   99  A    between atoms: _238  and  _239
REMARK  100  A    between atoms: _238  and  _241
REMARK  101  A    between atoms: _244  and  _246
REMARK  102  A    between atoms: _246  and  _247
REMARK  103  A    between atoms: _246  and  _249
REMARK  104  A    between atoms: _249  and  _250
REMARK  105  A    between atoms: _253  and  _255
REMARK  106  A    between atoms: _255  and  _256
REMARK  107  A    between atoms: _255  and  _258
REMARK  108  A    between atoms: _258  and  _259
REMARK  109  A    between atoms: _259  and  _260
REMARK  110  A    between atoms: _263  and  _265
REMARK  111  A    between atoms: _265  and  _266
REMARK  112  A    between atoms: _265  and  _268
REMARK  113  A    between atoms: _268  and  _269
REMARK  114  A    between atoms: _272  and  _274
REMARK  115  A    between atoms: _274  and  _275
REMARK  116  A    between atoms: _274  and  _277
REMARK  117  A    between atoms: _277  and  _278
REMARK  118  A    between atoms: _281  and  _283
REMARK  119  A    between atoms: _283  and  _284
REMARK  120  A    between atoms: _283  and  _286
REMARK  121  A    between atoms: _286  and  _287
REMARK  122  A    between atoms: _292  and  _294
REMARK  123  A    between atoms: _294  and  _295
REMARK  124  A    between atoms: _298  and  _300
REMARK  125  A    between atoms: _300  and  _301
REMARK  126  A    between atoms: _300  and  _303
REMARK  127  A    between atoms: _303  and  _304
REMARK  128  A    between atoms: _307  and  _309
REMARK  129  A    between atoms: _309  and  _310
REMARK  130  A    between atoms: _309  and  _312
REMARK  131  A    between atoms: _315  and  _317
REMARK  132  A    between atoms: _317  and  _318
REMARK  133  A    between atoms: _317  and  _320
REMARK  134  A    between atoms: _320  and  _321
REMARK  135  A    between atoms: _321  and  _322
REMARK  136  A    between atoms: _322  and  _323
REMARK  137  A    between atoms: _332  and  _334
REMARK  138  A    between atoms: _334  and  _335
REMARK  139  A    between atoms: _334  and  _337
REMARK  140  A    between atoms: _337  and  _338
REMARK  141  A    between atoms: _341  and  _343
REMARK  142  A    between atoms: _343  and  _344
REMARK  143  A    between atoms: _343  and  _346
REMARK  144  A    between atoms: _346  and  _347
REMARK  145  A    between atoms: _350  and  _352
REMARK  146  A    between atoms: _352  and  _353
REMARK  147  A    between atoms: _352  and  _355
REMARK  148  A    between atoms: _355  and  _356
REMARK  149  A    between atoms: _356  and  _357
REMARK  150  A    between atoms: _357  and  _358
REMARK  151  A    between atoms: _367  and  _369
REMARK  152  A    between atoms: _369  and  _370
REMARK  153  A    between atoms: _369  and  _372
REMARK  154  A    between atoms: _372  and  _373
REMARK  155  A    between atoms: _373  and  _374
REMARK  156  A    between atoms: _379  and  _381
REMARK  157  A    between atoms: _381  and  _382
REMARK  158  A    between atoms: _381  and  _384
REMARK  159  A    between atoms: _387  and  _389
REMARK  160  A    between atoms: _389  and  _390
REMARK  161  A    between atoms: _389  and  _392
REMARK  162  A    between atoms: _392  and  _393
REMARK  163  A    between atoms: _396  and  _398
REMARK  164  A    between atoms: _398  and  _399
REMARK  165  A    between atoms: _398  and  _401
REMARK  166  A    between atoms: _401  and  _402
REMARK  167  A    between atoms: _402  and  _403
REMARK  168  A    between atoms: _406  and  _408
REMARK  169  A    between atoms: _408  and  _409
REMARK  170  A    between atoms: _408  and  _411
REMARK  171  A    between atoms: _411  and  _412
REMARK  172  A    between atoms: _415  and  _417
REMARK  173  A    between atoms: _417  and  _418
REMARK  174  A    between atoms: _417  and  _420
REMARK  175  A    between atoms: _420  and  _421
REMARK  176  A    between atoms: _424  and  _426
REMARK  177  A    between atoms: _426  and  _427
REMARK  178  A    between atoms: _426  and  _429
REMARK  179  A    between atoms: _429  and  _430
REMARK  180  A    between atoms: _435  and  _437
REMARK  181  A    between atoms: _437  and  _438
REMARK  182  A    between atoms: _441  and  _443
REMARK  183  A    between atoms: _443  and  _444
REMARK  184  A    between atoms: _443  and  _446
REMARK  185  A    between atoms: _446  and  _447
REMARK  186  A    between atoms: _450  and  _452
REMARK  187  A    between atoms: _452  and  _453
REMARK  188  A    between atoms: _452  and  _455
REMARK  189  A    between atoms: _458  and  _460
REMARK  190  A    between atoms: _460  and  _461
REMARK  191  A    between atoms: _460  and  _463
REMARK  192  A    between atoms: _463  and  _464
REMARK  193  A    between atoms: _464  and  _465
REMARK  194  A    between atoms: _465  and  _466
REMARK  195  A    between atoms: _475  and  _477
REMARK  196  A    between atoms: _477  and  _478
REMARK  197  A    between atoms: _477  and  _480
REMARK  198  A    between atoms: _480  and  _481
REMARK  199  A    between atoms: _484  and  _486
REMARK  200  A    between atoms: _486  and  _487
REMARK  201  A    between atoms: _486  and  _489
REMARK  202  A    between atoms: _489  and  _490
REMARK  203  A    between atoms: _493  and  _495
REMARK  204  A    between atoms: _495  and  _496
REMARK  205  A    between atoms: _495  and  _498
REMARK  206  A    between atoms: _498  and  _499
REMARK  207  A    between atoms: _499  and  _500
REMARK  208  A    between atoms: _505  and  _507
REMARK  209  A    between atoms: _507  and  _508
REMARK  210  A    between atoms: _507  and  _510
REMARK  211  A    between atoms: _513  and  _515
REMARK  212  A    between atoms: _515  and  _516
REMARK  213  A    between atoms: _515  and  _518
REMARK  214  A    between atoms: _518  and  _519
REMARK  215  A    between atoms: _522  and  _524
REMARK  216  A    between atoms: _524  and  _525
REMARK  217  A    between atoms: _524  and  _527
REMARK  218  A    between atoms: _527  and  _528
REMARK  219  A    between atoms: _528  and  _529
REMARK  220  A    between atoms: _532  and  _534
REMARK  221  A    between atoms: _534  and  _535
REMARK  222  A    between atoms: _534  and  _537
REMARK  223  A    between atoms: _537  and  _538
REMARK  224  A    between atoms: _541  and  _543
REMARK  225  A    between atoms: _543  and  _544
REMARK  226  A    between atoms: _543  and  _546
REMARK  227  A    between atoms: _546  and  _547
REMARK  228  A    between atoms: _550  and  _552
REMARK  229  A    between atoms: _552  and  _553
REMARK  230  A    between atoms: _552  and  _555
REMARK  231  A    between atoms: _555  and  _556
REMARK  232  A    between atoms: _561  and  _563
REMARK  233  A    between atoms: _563  and  _564
REMARK  234  A    between atoms: _567  and  _569
REMARK  235  A    between atoms: _569  and  _570
REMARK  236  A    between atoms: _569  and  _572
REMARK  237  A    between atoms: _572  and  _573
REMARK  238  A    between atoms: _576  and  _578
REMARK  239  A    between atoms: _578  and  _579
REMARK  240  A    between atoms: _578  and  _581
REMARK  241  A    between atoms: _584  and  _586
REMARK  242  A    between atoms: _586  and  _587
REMARK  243  A    between atoms: _586  and  _589
REMARK  244  A    between atoms: _589  and  _590
REMARK  245  A    between atoms: _590  and  _591
REMARK  246  A    between atoms: _591  and  _592
REMARK  247  A    between atoms: _601  and  _603
REMARK  248  A    between atoms: _603  and  _604
REMARK  249  A    between atoms: _603  and  _606
REMARK  250  A    between atoms: _606  and  _607
REMARK  251  A    between atoms: _610  and  _612
REMARK  252  A    between atoms: _612  and  _613
REMARK  253  A    between atoms: _612  and  _615
REMARK  254  A    between atoms: _615  and  _616
REMARK  255  A    between atoms: _619  and  _621
REMARK  256  A    between atoms: _621  and  _622
REMARK  257  A    between atoms: _621  and  _624
REMARK  258  A    between atoms: _624  and  _625
REMARK  259  A    between atoms: _625  and  _626
REMARK  260  A    between atoms: _631  and  _633
REMARK  261  A    between atoms: _633  and  _634
REMARK  262  A    between atoms: _633  and  _636
REMARK  263  A    between atoms: _639  and  _641
REMARK  264  A    between atoms: _641  and  _642
REMARK  265  A    between atoms: _641  and  _644
REMARK  266  A    between atoms: _644  and  _645
REMARK                            x       y       z     vdW  Elec       q    Type
REMARK                         _______ _______ _______ _____ _____    ______ ____
ROOT
ATOM      1  C   ALA A   1       6.811  -7.461   1.930  0.00  0.00    +0.238 C 
ATOM      2  O   ALA A   1       5.939  -7.601   2.790  0.00  0.00    -0.274 OA
ATOM      3  N   LEU A   2       6.774  -6.492   1.019  0.00  0.00    -0.298 N 
ATOM      4  H   LEU A   2       7.544  -6.423   0.323  0.00  0.00    +0.150 HD
ENDROOT
BRANCH   1   5
ATOM      5  CA  ALA A   1       8.005  -8.424   1.869  0.00  0.00    +0.145 C 
ATOM      6  CB  ALA A   1       9.242  -7.752   2.423  0.00  0.00    +0.028 C 
BRANCH   5   7
ATOM      7  N   ALA A   1       8.259  -8.880   0.501  0.00  0.00    -0.238 NA
ATOM      8  H   ALA A   1       9.169  -8.652   0.052  0.00  0.00    +0.142 HD
ENDBRANCH   5   7
ENDBRANCH   1   5
BRANCH   3   9
ATOM      9  CA  LEU A   2       5.681  -5.522   0.969  0.00  0.00    +0.137 C 
BRANCH   9  10
ATOM     10  C   LEU A   2       4.328  -6.206   0.805  0.00  0.00    +0.227 C 
ATOM     11  O   LEU A   2       3.356  -5.825   1.452  0.00  0.00    -0.286 OA
ENDBRANCH   9  10
BRANCH   9  12
ATOM     12  CB  LEU A   2       5.867  -4.543  -0.193  0.00  0.00    +0.028 C 
BRANCH  12  13
ATOM     13  CG  LEU A   2       6.292  -3.108   0.106  0.00  0.00    +0.002 C 
ATOM     14  CD2 LEU A   2       5.343  -2.478   1.135  0.00  0.00    +0.000 C 
ATOM     15  CD1 LEU A   2       6.272  -2.313  -1.200  0.00  0.00    +0.000 C 
ENDBRANCH  12  13
ENDBRANCH   9  12
ENDBRANCH   3   9
TORSDOF 6
REMARK  Name = ../refined-set-2016/3v2q/3v2q_pocket.pdb
REMARK  266 active torsions:
REMARK  status: ('A' for Active; 'I' for Inactive)
REMARK    1  A    between atoms: _1  and  _3
REMARK    2  A    between atoms: _3  and  _4
REMARK    3  A    between atoms: _3  and  _6
REMARK    4  A    between atoms: _6  and  _7
REMARK    5  A    between atoms: _7  and  _8
REMARK    6  A    between atoms: _11  and  _13
REMARK    7  A    between atoms: _13  and  _14
REMARK    8  A    between atoms: _13  and  _16
REMARK    9  A    between atoms: _16  and  _17
REMARK   10  A    between atoms: _20  and  _22
REMARK   11  A    between atoms: _22  and  _23
REMARK   12  A    between atoms: _22  and  _25
REMARK   13  A    between atoms: _25  and  _26
REMARK   14  A    between atoms: _29  and  _31
REMARK   15  A    between atoms: _31  and  _32
REMARK   16  A    between atoms: _31  and  _34
REMARK   17  A    between atoms: _34  and  _35
REMARK   18  A    between atoms: _40  and  _42
REMARK   19  A    between atoms: _42  and  _43
REMARK   20  A    between atoms: _46  and  _48
REMARK   21  A    between atoms: _48  and  _49
REMARK   22  A    between atoms: _48  and  _51
REMARK   23  A    between atoms: _51  and  _52
REMARK   24  A    between atoms: _55  and  _57
REMARK   25  A    between atoms: _57  and  _58
REMARK   26  A    between atoms: _57  and  _60
REMARK   27  A    between atoms: _63  and  _65
REMARK   28  A    between atoms: _65  and  _66
REMARK   29  A    between atoms: _65  and  _68
REMARK   30  A    between atoms: _68  and  _69
REMARK   31  A    between atoms: _69  and  _70
REMARK   32  A    between atoms: _70  and  _71
REMARK   33  A    between atoms: _80  and  _82
REMARK   34  A    between atoms: _82  and  _83
REMARK   35  A    between atoms: _82  and  _85
REMARK   36  A    between atoms: _85  and  _86
REMARK   37  A    between atoms: _89  and  _91
REMARK   38  A    between atoms: _91  and  _92
REMARK   39  A    between atoms: _91  and  _94
REMARK   40  A    between atoms: _94  and  _95
REMARK   41  A    between atoms: _98  and  _100
REMARK   42  A    between atoms: _100  and  _101
REMARK   43  A    between atoms: _100  and  _103
REMARK   44  A    between atoms: _103  and  _104
REMARK   45  A    between atoms: _104  and  _105
REMARK   46  A    between atoms: _110  and  _112
REMARK   47  A    between atoms: _112  and  _113
REMARK   48  A    between atoms: _112  and  _115
REMARK   49  A    between atoms: _118  and  _120
REMARK   50  A    between atoms: _120  and  _121
REMARK   51  A    between atoms: _120  and  _123
REMARK   52  A    between atoms: _123  and  _124
REMARK   53  A    between atoms: _127  and  _129
REMARK   54  A    between atoms: _129  and  _130
REMARK   55  A    between atoms: _129  and  _132
REMARK   56  A    between atoms: _132  and  _133
REMARK   57  A    between atoms: _133  and  _134
REMARK   58  A    between atoms: _137  and  _139
REMARK   59  A    between atoms: _139  and  _140
REMARK   60  A    between atoms: _139  and  _142
REMARK   61  A    between atoms: _142  and  _143
REMARK   62  A    between atoms: _146  and  _148
REMARK   63  A    between atoms: _148  and  _149
REMARK   64  A    between atoms: _148  and  _151
REMARK   65  A    between atoms: _151  and  _152
REMARK   66  A    between atoms: _155  and  _157
REMARK   67  A    between atoms: _157  and  _158
REMARK   68  A    between atoms: _157  and  _160
REMARK   69  A    between atoms: _160  and  _161
REMARK   70  A    between atoms: _166  and  _168
REMARK   71  A    between atoms: _168  and  _169
REMARK   72  A    between atoms: _172  and  _174
REMARK   73  A    between atoms: _174  and  _175
REMARK   74  A    between atoms: _174  and  _177
REMARK   75  A    between atoms: _177  and  _178
REMARK   76  A    between atoms: _181  and  _183
REMARK   77  A    between atoms: _183  and  _184
REMARK   78  A    between atoms: _183  and  _186
REMARK   79  A    between atoms: _189  and  _191
REMARK   80  A    between atoms: _191  and  _192
REMARK   81  A    between atoms: _191  and  _194
REMARK   82  A    between atoms: _194  and  _195
REMARK   83  A    between atoms: _195  and  _196
REMARK   84  A    between atoms: _196  and  _197
REMARK   85  A    between atoms: _206  and  _208
REMARK   86  A    between atoms: _208  and  _209
REMARK   87  A    between atoms: _208  and  _211
REMARK   88  A    between atoms: _211  and  _212
REMARK   89  A    between atoms: _215  and  _217
REMARK   90  A    between atoms: _217  and  _218
REMARK   91  A    between atoms: _217  and  _220
REMARK   92  A    between atoms: _220  and  _221
REMARK   93  A    between atoms: _224  and  _226
REMARK   94  A    between atoms: _226  and  _227
REMARK   95  A    between atoms: _226  and  _229
REMARK   96  A    between atoms: _229  and  _230
REMARK   97  A    between atoms: _230  and  _231
REMARK   98  A    between atoms: _236  and  _238
REMARK   99  A    between atoms: _238  and  _239
REMARK  100  A    between atoms: _238  and  _241
REMARK  101  A    between atoms: _244  and  _246
REMARK  102  A    between atoms: _246  and  _247
REMARK  103  A    between atoms: _246  and  _249
REMARK  104  A    between atoms: _249  and  _250
REMARK  105  A    between atoms: _253  and  _255
REMARK  106  A    between atoms: _255  and  _256
REMARK  107  A    between atoms: _255  and  _258
REMARK  108  A    between atoms: _258  and  _259
REMARK  109  A    between atoms: _259  and  _260
REMARK  110  A    between atoms: _263  and  _265
REMARK  111  A    between atoms: _265  and  _266
REMARK  112  A    between atoms: _265  and  _268
REMARK  113  A    between atoms: _268  and  _269
REMARK  114  A    between atoms: _272  and  _274
REMARK  115  A    between atoms: _274  and  _275
REMARK  116  A    between atoms: _274  and  _277
REMARK  117  A    between atoms: _277  and  _278
REMARK  118  A    between atoms: _281  and  _283
REMARK  119  A    between atoms: _283  and  _284
REMARK  120  A    between atoms: _283  and  _286
REMARK  121  A    between atoms: _286  and  _287
REMARK  122  A    between atoms: _292  and  _294
REMARK  123  A    between atoms: _294  and  _295
REMARK  124  A    between atoms: _298  and  _300
REMARK  125  A    between atoms: _300  and  _301
REMARK  126  A    between atoms: _300  and  _303
REMARK  127  A    between atoms: _303  and  _304
REMARK  128  A    between atoms: _307  and  _309
REMARK  129  A    between atoms: _309  and  _310
REMARK  130  A    between atoms: _309  and  _312
REMARK  131  A    between atoms: _315  and  _317
REMARK  132  A    between atoms: _317  and  _318
REMARK  133  A    between atoms: _317  and  _320
REMARK  134  A    between atoms: _320  and  _321
REMARK  135  A    between atoms: _321  and  _322
REMARK  136  A    between atoms: _322  and  _323
REMARK  137  A    between atoms: _332  and  _334
REMARK  138  A    between atoms: _334  and  _335
REMARK  139  A    between atoms: _334  and  _337
REMARK  140  A    between atoms: _337  and  _338
REMARK  141  A    between atoms: _341  and  _343
REMARK  142  A    between atoms: _343  and  _344
REMARK  143  A    between atoms: _343  and  _346
REMARK  144  A    between atoms: _346  and  _347
REMARK  145  A    between atoms: _350  and  _352
REMARK  146  A    between atoms: _352  and  _353
REMARK  147  A    between atoms: _352  and  _355
REMARK  148  A    between atoms: _355  and  _356
REMARK  149  A    between atoms: _356  and  _357
REMARK  150  A    between atoms: _357  and  _358
REMARK  151  A    between atoms: _367  and  _369
REMARK  152  A    between atoms: _369  and  _370
REMARK  153  A    between atoms: _369  and  _372
REMARK  154  A    between atoms: _372  and  _373
REMARK  155  A    between atoms: _373  and  _374
REMARK  156  A    between atoms: _379  and  _381
REMARK  157  A    between atoms: _381  and  _382
REMARK  158  A    between atoms: _381  and  _384
REMARK  159  A    between atoms: _387  and  _389
REMARK  160  A    between atoms: _389  and  _390
REMARK  161  A    between atoms: _389  and  _392
REMARK  162  A    between atoms: _392  and  _393
REMARK  163  A    between atoms: _396  and  _398
REMARK  164  A    between atoms: _398  and  _399
REMARK  165  A    between atoms: _398  and  _401
REMARK  166  A    between atoms: _401  and  _402
REMARK  167  A    between atoms: _402  and  _403
REMARK  168  A    between atoms: _406  and  _408
REMARK  169  A    between atoms: _408  and  _409
REMARK  170  A    between atoms: _408  and  _411
REMARK  171  A    between atoms: _411  and  _412
REMARK  172  A    between atoms: _415  and  _417
REMARK  173  A    between atoms: _417  and  _418
REMARK  174  A    between atoms: _417  and  _420
REMARK  175  A    between atoms: _420  and  _421
REMARK  176  A    between atoms: _424  and  _426
REMARK  177  A    between atoms: _426  and  _427
REMARK  178  A    between atoms: _426  and  _429
REMARK  179  A    between atoms: _429  and  _430
REMARK  180  A    between atoms: _435  and  _437
REMARK  181  A    between atoms: _437  and  _438
REMARK  182  A    between atoms: _441  and  _443
REMARK  183  A    between atoms: _443  and  _444
REMARK  184  A    between atoms: _443  and  _446
REMARK  185  A    between atoms: _446  and  _447
REMARK  186  A    between atoms: _450  and  _452
REMARK  187  A    between atoms: _452  and  _453
REMARK  188  A    between atoms: _452  and  _455
REMARK  189  A    between atoms: _458  and  _460
REMARK  190  A    between atoms: _460  and  _461
REMARK  191  A    between atoms: _460  and  _463
REMARK  192  A    between atoms: _463  and  _464
REMARK  193  A    between atoms: _464  and  _465
REMARK  194  A    between atoms: _465  and  _466
REMARK  195  A    between atoms: _475  and  _477
REMARK  196  A    between atoms: _477  and  _478
REMARK  197  A    between atoms: _477  and  _480
REMARK  198  A    between atoms: _480  and  _481
REMARK  199  A    between atoms: _484  and  _486
REMARK  200  A    between atoms: _486  and  _487
REMARK  201  A    between atoms: _486  and  _489
REMARK  202  A    between atoms: _489  and  _490
REMARK  203  A    between atoms: _493  and  _495
REMARK  204  A    between atoms: _495  and  _496
REMARK  205  A    between atoms: _495  and  _498
REMARK  206  A    between atoms: _498  and  _499
REMARK  207  A    between atoms: _499  and  _500
REMARK  208  A    between atoms: _505  and  _507
REMARK  209  A    between atoms: _507  and  _508
REMARK  210  A    between atoms: _507  and  _510
REMARK  211  A    between atoms: _513  and  _515
REMARK  212  A    between atoms: _515  and  _516
REMARK  213  A    between atoms: _515  and  _518
REMARK  214  A    between atoms: _518  and  _519
REMARK  215  A    between atoms: _522  and  _524
REMARK  216  A    between atoms: _524  and  _525
REMARK  217  A    between atoms: _524  and  _527
REMARK  218  A    between atoms: _527  and  _528
REMARK  219  A    between atoms: _528  and  _529
REMARK  220  A    between atoms: _532  and  _534
REMARK  221  A    between atoms: _534  and  _535
REMARK  222  A    between atoms: _534  and  _537
REMARK  223  A    between atoms: _537  and  _538
REMARK  224  A    between atoms: _541  and  _543
REMARK  225  A    between atoms: _543  and  _544
REMARK  226  A    between atoms: _543  and  _546
REMARK  227  A    between atoms: _546  and  _547
REMARK  228  A    between atoms: _550  and  _552
REMARK  229  A    between atoms: _552  and  _553
REMARK  230  A    between atoms: _552  and  _555
REMARK  231  A    between atoms: _555  and  _556
REMARK  232  A    between atoms: _561  and  _563
REMARK  233  A    between atoms: _563  and  _564
REMARK  234  A    between atoms: _567  and  _569
REMARK  235  A    between atoms: _569  and  _570
REMARK  236  A    between atoms: _569  and  _572
REMARK  237  A    between atoms: _572  and  _573
REMARK  238  A    between atoms: _576  and  _578
REMARK  239  A    between atoms: _578  and  _579
REMARK  240  A    between atoms: _578  and  _581
REMARK  241  A    between atoms: _584  and  _586
REMARK  242  A    between atoms: _586  and  _587
REMARK  243  A    between atoms: _586  and  _589
REMARK  244  A    between atoms: _589  and  _590
REMARK  245  A    between atoms: _590  and  _591
REMARK  246  A    between atoms: _591  and  _592
REMARK  247  A    between atoms: _601  and  _603
REMARK  248  A    between atoms: _603  and  _604
REMARK  249  A    between atoms: _603  and  _606
REMARK  250  A    between atoms: _606  and  _607
REMARK  251  A    between atoms: _610  and  _612
REMARK  252  A    between atoms: _612  and  _613
REMARK  253  A    between atoms: _612  and  _615
REMARK  254  A    between atoms: _615  and  _616
REMARK  255  A    between atoms: _619  and  _621
REMARK  256  A    between atoms: _621  and  _622
REMARK  257  A    between atoms: _621  and  _624
REMARK  258  A    between atoms: _624  and  _625
REMARK  259  A    between atoms: _625  and  _626
REMARK  260  A    between atoms: _631  and  _633
REMARK  261  A    between atoms: _633  and  _634
REMARK  262  A    between atoms: _633  and  _636
REMARK  263  A    between atoms: _639  and  _641
REMARK  264  A    between atoms: _641  and  _642
REMARK  265  A    between atoms: _641  and  _644
REMARK  266  A    between atoms: _644  and  _645
REMARK                            x       y       z     vdW  Elec       q    Type
REMARK                         _______ _______ _______ _____ _____    ______ ____
ROOT
ATOM      1  CA  ARG A   2      -0.152  -5.353   2.755  0.00  0.00    +0.137 C 
ENDROOT
BRANCH   1   4
ATOM      2  C   VAL A   1       1.433  -5.857   4.517  0.00  0.00    +0.238 C 
ATOM      3  O   VAL A   1       0.599  -5.570   5.377  0.00  0.00    -0.274 OA
ATOM      4  N   ARG A   2       1.158  -5.792   3.220  0.00  0.00    -0.298 N 
ATOM      5  H   ARG A   2       1.886  -6.058   2.527  0.00  0.00    +0.150 HD
BRANCH   2   6
ATOM      6  CA  VAL A   1       2.844  -6.326   4.911  0.00  0.00    +0.145 C 
BRANCH   6   7
ATOM      7  CB  VAL A   1       3.849  -5.144   4.811  0.00  0.00    +0.025 C 
ATOM      8  CG2 VAL A   1       5.147  -5.510   5.545  0.00  0.00    +0.002 C 
ATOM      9  CG1 VAL A   1       3.253  -3.870   5.422  0.00  0.00    +0.002 C 
ENDBRANCH   6   7
BRANCH   6  10
ATOM     10  N   VAL A   1       3.287  -7.434   4.081  0.00  0.00    -0.238 NA
ATOM     11  H   VAL A   1       4.146  -7.324   3.506  0.00  0.00    +0.142 HD
ENDBRANCH   6  10
ENDBRANCH   2   6
ENDBRANCH   1   4
BRANCH   1  12
ATOM     12  C   ARG A   2      -1.253  -6.321   3.178  0.00  0.00    +0.227 C 
ATOM     13  O   ARG A   2      -2.340  -5.919   3.588  0.00  0.00    -0.286 OA
ENDBRANCH   1  12
BRANCH   1  14
ATOM     14  CB  ARG A   2      -0.148  -5.214   1.233  0.00  0.00    +0.031 C 
BRANCH  14  15
ATOM     15  CG  ARG A   2      -1.444  -4.664   0.671  0.00  0.00    +0.045 C 
BRANCH  15  16
ATOM     16  CD  ARG A   2      -1.330  -4.328  -0.819  0.00  0.00    +0.174 C 
BRANCH  16  17
ATOM     17  NE  ARG A   2      -1.006  -5.500  -1.621  0.00  0.00    -0.265 N 
ATOM     18  HE  ARG A   2      -0.873  -6.405  -1.127  0.00  0.00    +0.259 HD
ATOM     19  CZ  ARG A   2      -0.869  -5.489  -2.941  0.00  0.00    +0.342 C 
ATOM     20  NH2 ARG A   2      -0.568  -6.608  -3.583  0.00  0.00    -0.292 N 
ATOM     21 HH21 ARG A   2      -0.439  -7.493  -3.053  0.00  0.00    +0.255 HD
ATOM     22 HH22 ARG A   2      -0.460  -6.601  -4.617  0.00  0.00    +0.255 HD
ATOM     23  NH1 ARG A   2      -1.029  -4.363  -3.618  0.00  0.00    -0.292 N 
ATOM     24 HH11 ARG A   2      -1.263  -3.483  -3.116  0.00  0.00    +0.255 HD
ATOM     25 HH12 ARG A   2      -0.921  -4.358  -4.652  0.00  0.00    +0.255 HD
ENDBRANCH  16  17
ENDBRANCH  15  16
ENDBRANCH  14  15
ENDBRANCH   1  14
TORSDOF 9
REMARK  Name = ../refined-set-2016/3v2q/3v2q_pocket.pdb
REMARK  266 active torsions:
REMARK  status: ('A' for Active; 'I' for Inactive)
REMARK    1  A    between atoms: _1  and  _3
REMARK    2  A    between atoms: _3  and  _4
REMARK    3  A    between atoms: _3  and  _6
REMARK    4  A    between atoms: _6  and  _7
REMARK    5  A    between atoms: _7  and  _8
REMARK    6  A    between atoms: _11  and  _13
REMARK    7  A    between atoms: _13  and  _14
REMARK    8  A    between atoms: _13  and  _16
REMARK    9  A    between atoms: _16  and  _17
REMARK   10  A    between atoms: _20  and  _22
REMARK   11  A    between atoms: _22  and  _23
REMARK   12  A    between atoms: _22  and  _25
REMARK   13  A    between atoms: _25  and  _26
REMARK   14  A    between atoms: _29  and  _31
REMARK   15  A    between atoms: _31  and  _32
REMARK   16  A    between atoms: _31  and  _34
REMARK   17  A    between atoms: _34  and  _35
REMARK   18  A    between atoms: _40  and  _42
REMARK   19  A    between atoms: _42  and  _43
REMARK   20  A    between atoms: _46  and  _48
REMARK   21  A    between atoms: _48  and  _49
REMARK   22  A    between atoms: _48  and  _51
REMARK   23  A    between atoms: _51  and  _52
REMARK   24  A    between atoms: _55  and  _57
REMARK   25  A    between atoms: _57  and  _58
REMARK   26  A    between atoms: _57  and  _60
REMARK   27  A    between atoms: _63  and  _65
REMARK   28  A    between atoms: _65  and  _66
REMARK   29  A    between atoms: _65  and  _68
REMARK   30  A    between atoms: _68  and  _69
REMARK   31  A    between atoms: _69  and  _70
REMARK   32  A    between atoms: _70  and  _71
REMARK   33  A    between atoms: _80  and  _82
REMARK   34  A    between atoms: _82  and  _83
REMARK   35  A    between atoms: _82  and  _85
REMARK   36  A    between atoms: _85  and  _86
REMARK   37  A    between atoms: _89  and  _91
REMARK   38  A    between atoms: _91  and  _92
REMARK   39  A    between atoms: _91  and  _94
REMARK   40  A    between atoms: _94  and  _95
REMARK   41  A    between atoms: _98  and  _100
REMARK   42  A    between atoms: _100  and  _101
REMARK   43  A    between atoms: _100  and  _103
REMARK   44  A    between atoms: _103  and  _104
REMARK   45  A    between atoms: _104  and  _105
REMARK   46  A    between atoms: _110  and  _112
REMARK   47  A    between atoms: _112  and  _113
REMARK   48  A    between atoms: _112  and  _115
REMARK   49  A    between atoms: _118  and  _120
REMARK   50  A    between atoms: _120  and  _121
REMARK   51  A    between atoms: _120  and  _123
REMARK   52  A    between atoms: _123  and  _124
REMARK   53  A    between atoms: _127  and  _129
REMARK   54  A    between atoms: _129  and  _130
REMARK   55  A    between atoms: _129  and  _132
REMARK   56  A    between atoms: _132  and  _133
REMARK   57  A    between atoms: _133  and  _134
REMARK   58  A    between atoms: _137  and  _139
REMARK   59  A    between atoms: _139  and  _140
REMARK   60  A    between atoms: _139  and  _142
REMARK   61  A    between atoms: _142  and  _143
REMARK   62  A    between atoms: _146  and  _148
REMARK   63  A    between atoms: _148  and  _149
REMARK   64  A    between atoms: _148  and  _151
REMARK   65  A    between atoms: _151  and  _152
REMARK   66  A    between atoms: _155  and  _157
REMARK   67  A    between atoms: _157  and  _158
REMARK   68  A    between atoms: _157  and  _160
REMARK   69  A    between atoms: _160  and  _161
REMARK   70  A    between atoms: _166  and  _168
REMARK   71  A    between atoms: _168  and  _169
REMARK   72  A    between atoms: _172  and  _174
REMARK   73  A    between atoms: _174  and  _175
REMARK   74  A    between atoms: _174  and  _177
REMARK   75  A    between atoms: _177  and  _178
REMARK   76  A    between atoms: _181  and  _183
REMARK   77  A    between atoms: _183  and  _184
REMARK   78  A    between atoms: _183  and  _186
REMARK   79  A    between atoms: _189  and  _191
REMARK   80  A    between atoms: _191  and  _192
REMARK   81  A    between atoms: _191  and  _194
REMARK   82  A    between atoms: _194  and  _195
REMARK   83  A    between atoms: _195  and  _196
REMARK   84  A    between atoms: _196  and  _197
REMARK   85  A    between atoms: _206  and  _208
REMARK   86  A    between atoms: _208  and  _209
REMARK   87  A    between atoms: _208  and  _211
REMARK   88  A    between atoms: _211  and  _212
REMARK   89  A    between atoms: _215  and  _217
REMARK   90  A    between atoms: _217  and  _218
REMARK   91  A    between atoms: _217  and  _220
REMARK   92  A    between atoms: _220  and  _221
REMARK   93  A    between atoms: _224  and  _226
REMARK   94  A    between atoms: _226  and  _227
REMARK   95  A    between atoms: _226  and  _229
REMARK   96  A    between atoms: _229  and  _230
REMARK   97  A    between atoms: _230  and  _231
REMARK   98  A    between atoms: _236  and  _238
REMARK   99  A    between atoms: _238  and  _239
REMARK  100  A    between atoms: _238  and  _241
REMARK  101  A    between atoms: _244  and  _246
REMARK  102  A    between atoms: _246  and  _247
REMARK  103  A    between atoms: _246  and  _249
REMARK  104  A    between atoms: _249  and  _250
REMARK  105  A    between atoms: _253  and  _255
REMARK  106  A    between atoms: _255  and  _256
REMARK  107  A    between atoms: _255  and  _258
REMARK  108  A    between atoms: _258  and  _259
REMARK  109  A    between atoms: _259  and  _260
REMARK  110  A    between atoms: _263  and  _265
REMARK  111  A    between atoms: _265  and  _266
REMARK  112  A    between atoms: _265  and  _268
REMARK  113  A    between atoms: _268  and  _269
REMARK  114  A    between atoms: _272  and  _274
REMARK  115  A    between atoms: _274  and  _275
REMARK  116  A    between atoms: _274  and  _277
REMARK  117  A    between atoms: _277  and  _278
REMARK  118  A    between atoms: _281  and  _283
REMARK  119  A    between atoms: _283  and  _284
REMARK  120  A    between atoms: _283  and  _286
REMARK  121  A    between atoms: _286  and  _287
REMARK  122  A    between atoms: _292  and  _294
REMARK  123  A    between atoms: _294  and  _295
REMARK  124  A    between atoms: _298  and  _300
REMARK  125  A    between atoms: _300  and  _301
REMARK  126  A    between atoms: _300  and  _303
REMARK  127  A    between atoms: _303  and  _304
REMARK  128  A    between atoms: _307  and  _309
REMARK  129  A    between atoms: _309  and  _310
REMARK  130  A    between atoms: _309  and  _312
REMARK  131  A    between atoms: _315  and  _317
REMARK  132  A    between atoms: _317  and  _318
REMARK  133  A    between atoms: _317  and  _320
REMARK  134  A    between atoms: _320  and  _321
REMARK  135  A    between atoms: _321  and  _322
REMARK  136  A    between atoms: _322  and  _323
REMARK  137  A    between atoms: _332  and  _334
REMARK  138  A    between atoms: _334  and  _335
REMARK  139  A    between atoms: _334  and  _337
REMARK  140  A    between atoms: _337  and  _338
REMARK  141  A    between atoms: _341  and  _343
REMARK  142  A    between atoms: _343  and  _344
REMARK  143  A    between atoms: _343  and  _346
REMARK  144  A    between atoms: _346  and  _347
REMARK  145  A    between atoms: _350  and  _352
REMARK  146  A    between atoms: _352  and  _353
REMARK  147  A    between atoms: _352  and  _355
REMARK  148  A    between atoms: _355  and  _356
REMARK  149  A    between atoms: _356  and  _357
REMARK  150  A    between atoms: _357  and  _358
REMARK  151  A    between atoms: _367  and  _369
REMARK  152  A    between atoms: _369  and  _370
REMARK  153  A    between atoms: _369  and  _372
REMARK  154  A    between atoms: _372  and  _373
REMARK  155  A    between atoms: _373  and  _374
REMARK  156  A    between atoms: _379  and  _381
REMARK  157  A    between atoms: _381  and  _382
REMARK  158  A    between atoms: _381  and  _384
REMARK  159  A    between atoms: _387  and  _389
REMARK  160  A    between atoms: _389  and  _390
REMARK  161  A    between atoms: _389  and  _392
REMARK  162  A    between atoms: _392  and  _393
REMARK  163  A    between atoms: _396  and  _398
REMARK  164  A    between atoms: _398  and  _399
REMARK  165  A    between atoms: _398  and  _401
REMARK  166  A    between atoms: _401  and  _402
REMARK  167  A    between atoms: _402  and  _403
REMARK  168  A    between atoms: _406  and  _408
REMARK  169  A    between atoms: _408  and  _409
REMARK  170  A    between atoms: _408  and  _411
REMARK  171  A    between atoms: _411  and  _412
REMARK  172  A    between atoms: _415  and  _417
REMARK  173  A    between atoms: _417  and  _418
REMARK  174  A    between atoms: _417  and  _420
REMARK  175  A    between atoms: _420  and  _421
REMARK  176  A    between atoms: _424  and  _426
REMARK  177  A    between atoms: _426  and  _427
REMARK  178  A    between atoms: _426  and  _429
REMARK  179  A    between atoms: _429  and  _430
REMARK  180  A    between atoms: _435  and  _437
REMARK  181  A    between atoms: _437  and  _438
REMARK  182  A    between atoms: _441  and  _443
REMARK  183  A    between atoms: _443  and  _444
REMARK  184  A    between atoms: _443  and  _446
REMARK  185  A    between atoms: _446  and  _447
REMARK  186  A    between atoms: _450  and  _452
REMARK  187  A    between atoms: _452  and  _453
REMARK  188  A    between atoms: _452  and  _455
REMARK  189  A    between atoms: _458  and  _460
REMARK  190  A    between atoms: _460  and  _461
REMARK  191  A    between atoms: _460  and  _463
REMARK  192  A    between atoms: _463  and  _464
REMARK  193  A    between atoms: _464  and  _465
REMARK  194  A    between atoms: _465  and  _466
REMARK  195  A    between atoms: _475  and  _477
REMARK  196  A    between atoms: _477  and  _478
REMARK  197  A    between atoms: _477  and  _480
REMARK  198  A    between atoms: _480  and  _481
REMARK  199  A    between atoms: _484  and  _486
REMARK  200  A    between atoms: _486  and  _487
REMARK  201  A    between atoms: _486  and  _489
REMARK  202  A    between atoms: _489  and  _490
REMARK  203  A    between atoms: _493  and  _495
REMARK  204  A    between atoms: _495  and  _496
REMARK  205  A    between atoms: _495  and  _498
REMARK  206  A    between atoms: _498  and  _499
REMARK  207  A    between atoms: _499  and  _500
REMARK  208  A    between atoms: _505  and  _507
REMARK  209  A    between atoms: _507  and  _508
REMARK  210  A    between atoms: _507  and  _510
REMARK  211  A    between atoms: _513  and  _515
REMARK  212  A    between atoms: _515  and  _516
REMARK  213  A    between atoms: _515  and  _518
REMARK  214  A    between atoms: _518  and  _519
REMARK  215  A    between atoms: _522  and  _524
REMARK  216  A    between atoms: _524  and  _525
REMARK  217  A    between atoms: _524  and  _527
REMARK  218  A    between atoms: _527  and  _528
REMARK  219  A    between atoms: _528  and  _529
REMARK  220  A    between atoms: _532  and  _534
REMARK  221  A    between atoms: _534  and  _535
REMARK  222  A    between atoms: _534  and  _537
REMARK  223  A    between atoms: _537  and  _538
REMARK  224  A    between atoms: _541  and  _543
REMARK  225  A    between atoms: _543  and  _544
REMARK  226  A    between atoms: _543  and  _546
REMARK  227  A    between atoms: _546  and  _547
REMARK  228  A    between atoms: _550  and  _552
REMARK  229  A    between atoms: _552  and  _553
REMARK  230  A    between atoms: _552  and  _555
REMARK  231  A    between atoms: _555  and  _556
REMARK  232  A    between atoms: _561  and  _563
REMARK  233  A    between atoms: _563  and  _564
REMARK  234  A    between atoms: _567  and  _569
REMARK  235  A    between atoms: _569  and  _570
REMARK  236  A    between atoms: _569  and  _572
REMARK  237  A    between atoms: _572  and  _573
REMARK  238  A    between atoms: _576  and  _578
REMARK  239  A    between atoms: _578  and  _579
REMARK  240  A    between atoms: _578  and  _581
REMARK  241  A    between atoms: _584  and  _586
REMARK  242  A    between atoms: _586  and  _587
REMARK  243  A    between atoms: _586  and  _589
REMARK  244  A    between atoms: _589  and  _590
REMARK  245  A    between atoms: _590  and  _591
REMARK  246  A    between atoms: _591  and  _592
REMARK  247  A    between atoms: _601  and  _603
REMARK  248  A    between atoms: _603  and  _604
REMARK  249  A    between atoms: _603  and  _606
REMARK  250  A    between atoms: _606  and  _607
REMARK  251  A    between atoms: _610  and  _612
REMARK  252  A    between atoms: _612  and  _613
REMARK  253  A    between atoms: _612  and  _615
REMARK  254  A    between atoms: _615  and  _616
REMARK  255  A    between atoms: _619  and  _621
REMARK  256  A    between atoms: _621  and  _622
REMARK  257  A    between atoms: _621  and  _624
REMARK  258  A    between atoms: _624  and  _625
REMARK  259  A    between atoms: _625  and  _626
REMARK  260  A    between atoms: _631  and  _633
REMARK  261  A    between atoms: _633  and  _634
REMARK  262  A    between atoms: _633  and  _636
REMARK  263  A    between atoms: _639  and  _641
REMARK  264  A    between atoms: _641  and  _642
REMARK  265  A    between atoms: _641  and  _644
REMARK  266  A    between atoms: _644  and  _645
REMARK                            x       y       z     vdW  Elec       q    Type
REMARK                         _______ _______ _______ _____ _____    ______ ____
ROOT
ATOM      1  C   LEU A   2      -3.988  -4.856   6.780  0.00  0.00    +0.241 C 
ATOM      2  O   LEU A   2      -4.804  -4.338   7.541  0.00  0.00    -0.273 OA
ATOM      3  N   ARG A   3      -4.360  -5.485   5.665  0.00  0.00    -0.298 N 
ATOM      4  H   ARG A   3      -3.650  -5.917   5.039  0.00  0.00    +0.150 HD
ENDROOT
BRANCH   1   5
ATOM      5  CA  LEU A   2      -2.497  -4.789   7.104  0.00  0.00    +0.149 C 
BRANCH   5   8
ATOM      6  C   LEU A   1      -2.055  -7.128   7.543  0.00  0.00    +0.238 C 
ATOM      7  O   LEU A   1      -2.896  -7.161   8.442  0.00  0.00    -0.274 OA
ATOM      8  N   LEU A   2      -1.809  -6.038   6.823  0.00  0.00    -0.297 N 
ATOM      9  H   LEU A   2      -1.116  -6.079   6.049  0.00  0.00    +0.150 HD
BRANCH   6  10
ATOM     10  CA  LEU A   1      -1.259  -8.374   7.170  0.00  0.00    +0.145 C 
BRANCH  10  11
ATOM     11  N   LEU A   1      -1.115  -8.401   5.723  0.00  0.00    -0.238 NA
ATOM     12  H   LEU A   1      -0.186  -8.215   5.295  0.00  0.00    +0.142 HD
ENDBRANCH  10  11
BRANCH  10  13
ATOM     13  CB  LEU A   1       0.120  -8.339   7.850  0.00  0.00    +0.026 C 
BRANCH  13  14
ATOM     14  CG  LEU A   1       0.954  -9.627   7.803  0.00  0.00    +0.002 C 
ATOM     15  CD2 LEU A   1       0.323 -10.666   8.715  0.00  0.00    +0.000 C 
ATOM     16  CD1 LEU A   1       2.388  -9.353   8.224  0.00  0.00    +0.000 C 
ENDBRANCH  13  14
ENDBRANCH  10  13
ENDBRANCH   6  10
ENDBRANCH   5   8
BRANCH   5  17
ATOM     17  CB  LEU A   2      -1.861  -3.638   6.325  0.00  0.00    +0.029 C 
BRANCH  17  18
ATOM     18  CG  LEU A   2      -1.758  -2.266   7.003  0.00  0.00    +0.002 C 
ATOM     19  CD2 LEU A   2      -2.930  -2.013   7.936  0.00  0.00    +0.000 C 
ATOM     20  CD1 LEU A   2      -1.727  -1.196   5.929  0.00  0.00    +0.000 C 
ENDBRANCH  17  18
ENDBRANCH   5  17
ENDBRANCH   1   5
BRANCH   3  21
ATOM     21  CA  ARG A   3      -5.785  -5.557   5.337  0.00  0.00    +0.137 C 
BRANCH  21  22
ATOM     22  C   ARG A   3      -6.544  -6.482   6.282  0.00  0.00    +0.227 C 
ATOM     23  O   ARG A   3      -7.738  -6.300   6.500  0.00  0.00    -0.286 OA
ENDBRANCH  21  22
BRANCH  21  24
ATOM     24  CB  ARG A   3      -6.005  -5.971   3.880  0.00  0.00    +0.031 C 
BRANCH  24  25
ATOM     25  CG  ARG A   3      -5.395  -7.283   3.509  0.00  0.00    +0.045 C 
BRANCH  25  26
ATOM     26  CD  ARG A   3      -5.654  -7.593   2.042  0.00  0.00    +0.174 C 
BRANCH  26  27
ATOM     27  NE  ARG A   3      -5.327  -6.480   1.156  0.00  0.00    -0.265 N 
ATOM     28  HE  ARG A   3      -5.385  -5.514   1.537  0.00  0.00    +0.259 HD
ATOM     29  CZ  ARG A   3      -4.960  -6.636  -0.109  0.00  0.00    +0.342 C 
ATOM     30  NH2 ARG A   3      -4.874  -7.854  -0.622  0.00  0.00    -0.292 N 
ATOM     31 HH21 ARG A   3      -5.094  -8.683  -0.033  0.00  0.00    +0.255 HD
ATOM     32 HH22 ARG A   3      -4.587  -7.982  -1.613  0.00  0.00    +0.255 HD
ATOM     33  NH1 ARG A   3      -4.676  -5.588  -0.860  0.00  0.00    -0.292 N 
ATOM     34 HH11 ARG A   3      -4.739  -4.630  -0.461  0.00  0.00    +0.255 HD
ATOM     35 HH12 ARG A   3      -4.389  -5.721  -1.851  0.00  0.00    +0.255 HD
ENDBRANCH  26  27
ENDBRANCH  25  26
ENDBRANCH  24  25
ENDBRANCH  21  24
ENDBRANCH   3  21
TORSDOF 14
REMARK  Name = ../refined-set-2016/3v2q/3v2q_pocket.pdb
REMARK  266 active torsions:
REMARK  status: ('A' for Active; 'I' for Inactive)
REMARK    1  A    between atoms: _1  and  _3
REMARK    2  A    between atoms: _3  and  _4
REMARK    3  A    between atoms: _3  and  _6
REMARK    4  A    between atoms: _6  and  _7
REMARK    5  A    between atoms: _7  and  _8
REMARK    6  A    between atoms: _11  and  _13
REMARK    7  A    between atoms: _13  and  _14
REMARK    8  A    between atoms: _13  and  _16
REMARK    9  A    between atoms: _16  and  _17
REMARK   10  A    between atoms: _20  and  _22
REMARK   11  A    between atoms: _22  and  _23
REMARK   12  A    between atoms: _22  and  _25
REMARK   13  A    between atoms: _25  and  _26
REMARK   14  A    between atoms: _29  and  _31
REMARK   15  A    between atoms: _31  and  _32
REMARK   16  A    between atoms: _31  and  _34
REMARK   17  A    between atoms: _34  and  _35
REMARK   18  A    between atoms: _40  and  _42
REMARK   19  A    between atoms: _42  and  _43
REMARK   20  A    between atoms: _46  and  _48
REMARK   21  A    between atoms: _48  and  _49
REMARK   22  A    between atoms: _48  and  _51
REMARK   23  A    between atoms: _51  and  _52
REMARK   24  A    between atoms: _55  and  _57
REMARK   25  A    between atoms: _57  and  _58
REMARK   26  A    between atoms: _57  and  _60
REMARK   27  A    between atoms: _63  and  _65
REMARK   28  A    between atoms: _65  and  _66
REMARK   29  A    between atoms: _65  and  _68
REMARK   30  A    between atoms: _68  and  _69
REMARK   31  A    between atoms: _69  and  _70
REMARK   32  A    between atoms: _70  and  _71
REMARK   33  A    between atoms: _80  and  _82
REMARK   34  A    between atoms: _82  and  _83
REMARK   35  A    between atoms: _82  and  _85
REMARK   36  A    between atoms: _85  and  _86
REMARK   37  A    between atoms: _89  and  _91
REMARK   38  A    between atoms: _91  and  _92
REMARK   39  A    between atoms: _91  and  _94
REMARK   40  A    between atoms: _94  and  _95
REMARK   41  A    between atoms: _98  and  _100
REMARK   42  A    between atoms: _100  and  _101
REMARK   43  A    between atoms: _100  and  _103
REMARK   44  A    between atoms: _103  and  _104
REMARK   45  A    between atoms: _104  and  _105
REMARK   46  A    between atoms: _110  and  _112
REMARK   47  A    between atoms: _112  and  _113
REMARK   48  A    between atoms: _112  and  _115
REMARK   49  A    between atoms: _118  and  _120
REMARK   50  A    between atoms: _120  and  _121
REMARK   51  A    between atoms: _120  and  _123
REMARK   52  A    between atoms: _123  and  _124
REMARK   53  A    between atoms: _127  and  _129
REMARK   54  A    between atoms: _129  and  _130
REMARK   55  A    between atoms: _129  and  _132
REMARK   56  A    between atoms: _132  and  _133
REMARK   57  A    between atoms: _133  and  _134
REMARK   58  A    between atoms: _137  and  _139
REMARK   59  A    between atoms: _139  and  _140
REMARK   60  A    between atoms: _139  and  _142
REMARK   61  A    between atoms: _142  and  _143
REMARK   62  A    between atoms: _146  and  _148
REMARK   63  A    between atoms: _148  and  _149
REMARK   64  A    between atoms: _148  and  _151
REMARK   65  A    between atoms: _151  and  _152
REMARK   66  A    between atoms: _155  and  _157
REMARK   67  A    between atoms: _157  and  _158
REMARK   68  A    between atoms: _157  and  _160
REMARK   69  A    between atoms: _160  and  _161
REMARK   70  A    between atoms: _166  and  _168
REMARK   71  A    between atoms: _168  and  _169
REMARK   72  A    between atoms: _172  and  _174
REMARK   73  A    between atoms: _174  and  _175
REMARK   74  A    between atoms: _174  and  _177
REMARK   75  A    between atoms: _177  and  _178
REMARK   76  A    between atoms: _181  and  _183
REMARK   77  A    between atoms: _183  and  _184
REMARK   78  A    between atoms: _183  and  _186
REMARK   79  A    between atoms: _189  and  _191
REMARK   80  A    between atoms: _191  and  _192
REMARK   81  A    between atoms: _191  and  _194
REMARK   82  A    between atoms: _194  and  _195
REMARK   83  A    between atoms: _195  and  _196
REMARK   84  A    between atoms: _196  and  _197
REMARK   85  A    between atoms: _206  and  _208
REMARK   86  A    between atoms: _208  and  _209
REMARK   87  A    between atoms: _208  and  _211
REMARK   88  A    between atoms: _211  and  _212
REMARK   89  A    between atoms: _215  and  _217
REMARK   90  A    between atoms: _217  and  _218
REMARK   91  A    between atoms: _217  and  _220
REMARK   92  A    between atoms: _220  and  _221
REMARK   93  A    between atoms: _224  and  _226
REMARK   94  A    between atoms: _226  and  _227
REMARK   95  A    between atoms: _226  and  _229
REMARK   96  A    between atoms: _229  and  _230
REMARK   97  A    between atoms: _230  and  _231
REMARK   98  A    between atoms: _236  and  _238
REMARK   99  A    between atoms: _238  and  _239
REMARK  100  A    between atoms: _238  and  _241
REMARK  101  A    between atoms: _244  and  _246
REMARK  102  A    between atoms: _246  and  _247
REMARK  103  A    between atoms: _246  and  _249
REMARK  104  A    between atoms: _249  and  _250
REMARK  105  A    between atoms: _253  and  _255
REMARK  106  A    between atoms: _255  and  _256
REMARK  107  A    between atoms: _255  and  _258
REMARK  108  A    between atoms: _258  and  _259
REMARK  109  A    between atoms: _259  and  _260
REMARK  110  A    between atoms: _263  and  _265
REMARK  111  A    between atoms: _265  and  _266
REMARK  112  A    between atoms: _265  and  _268
REMARK  113  A    between atoms: _268  and  _269
REMARK  114  A    between atoms: _272  and  _274
REMARK  115  A    between atoms: _274  and  _275
REMARK  116  A    between atoms: _274  and  _277
REMARK  117  A    between atoms: _277  and  _278
REMARK  118  A    between atoms: _281  and  _283
REMARK  119  A    between atoms: _283  and  _284
REMARK  120  A    between atoms: _283  and  _286
REMARK  121  A    between atoms: _286  and  _287
REMARK  122  A    between atoms: _292  and  _294
REMARK  123  A    between atoms: _294  and  _295
REMARK  124  A    between atoms: _298  and  _300
REMARK  125  A    between atoms: _300  and  _301
REMARK  126  A    between atoms: _300  and  _303
REMARK  127  A    between atoms: _303  and  _304
REMARK  128  A    between atoms: _307  and  _309
REMARK  129  A    between atoms: _309  and  _310
REMARK  130  A    between atoms: _309  and  _312
REMARK  131  A    between atoms: _315  and  _317
REMARK  132  A    between atoms: _317  and  _318
REMARK  133  A    between atoms: _317  and  _320
REMARK  134  A    between atoms: _320  and  _321
REMARK  135  A    between atoms: _321  and  _322
REMARK  136  A    between atoms: _322  and  _323
REMARK  137  A    between atoms: _332  and  _334
REMARK  138  A    between atoms: _334  and  _335
REMARK  139  A    between atoms: _334  and  _337
REMARK  140  A    between atoms: _337  and  _338
REMARK  141  A    between atoms: _341  and  _343
REMARK  142  A    between atoms: _343  and  _344
REMARK  143  A    between atoms: _343  and  _346
REMARK  144  A    between atoms: _346  and  _347
REMARK  145  A    between atoms: _350  and  _352
REMARK  146  A    between atoms: _352  and  _353
REMARK  147  A    between atoms: _352  and  _355
REMARK  148  A    between atoms: _355  and  _356
REMARK  149  A    between atoms: _356  and  _357
REMARK  150  A    between atoms: _357  and  _358
REMARK  151  A    between atoms: _367  and  _369
REMARK  152  A    between atoms: _369  and  _370
REMARK  153  A    between atoms: _369  and  _372
REMARK  154  A    between atoms: _372  and  _373
REMARK  155  A    between atoms: _373  and  _374
REMARK  156  A    between atoms: _379  and  _381
REMARK  157  A    between atoms: _381  and  _382
REMARK  158  A    between atoms: _381  and  _384
REMARK  159  A    between atoms: _387  and  _389
REMARK  160  A    between atoms: _389  and  _390
REMARK  161  A    between atoms: _389  and  _392
REMARK  162  A    between atoms: _392  and  _393
REMARK  163  A    between atoms: _396  and  _398
REMARK  164  A    between atoms: _398  and  _399
REMARK  165  A    between atoms: _398  and  _401
REMARK  166  A    between atoms: _401  and  _402
REMARK  167  A    between atoms: _402  and  _403
REMARK  168  A    between atoms: _406  and  _408
REMARK  169  A    between atoms: _408  and  _409
REMARK  170  A    between atoms: _408  and  _411
REMARK  171  A    between atoms: _411  and  _412
REMARK  172  A    between atoms: _415  and  _417
REMARK  173  A    between atoms: _417  and  _418
REMARK  174  A    between atoms: _417  and  _420
REMARK  175  A    between atoms: _420  and  _421
REMARK  176  A    between atoms: _424  and  _426
REMARK  177  A    between atoms: _426  and  _427
REMARK  178  A    between atoms: _426  and  _429
REMARK  179  A    between atoms: _429  and  _430
REMARK  180  A    between atoms: _435  and  _437
REMARK  181  A    between atoms: _437  and  _438
REMARK  182  A    between atoms: _441  and  _443
REMARK  183  A    between atoms: _443  and  _444
REMARK  184  A    between atoms: _443  and  _446
REMARK  185  A    between atoms: _446  and  _447
REMARK  186  A    between atoms: _450  and  _452
REMARK  187  A    between atoms: _452  and  _453
REMARK  188  A    between atoms: _452  and  _455
REMARK  189  A    between atoms: _458  and  _460
REMARK  190  A    between atoms: _460  and  _461
REMARK  191  A    between atoms: _460  and  _463
REMARK  192  A    between atoms: _463  and  _464
REMARK  193  A    between atoms: _464  and  _465
REMARK  194  A    between atoms: _465  and  _466
REMARK  195  A    between atoms: _475  and  _477
REMARK  196  A    between atoms: _477  and  _478
REMARK  197  A    between atoms: _477  and  _480
REMARK  198  A    between atoms: _480  and  _481
REMARK  199  A    between atoms: _484  and  _486
REMARK  200  A    between atoms: _486  and  _487
REMARK  201  A    between atoms: _486  and  _489
REMARK  202  A    between atoms: _489  and  _490
REMARK  203  A    between atoms: _493  and  _495
REMARK  204  A    between atoms: _495  and  _496
REMARK  205  A    between atoms: _495  and  _498
REMARK  206  A    between atoms: _498  and  _499
REMARK  207  A    between atoms: _499  and  _500
REMARK  208  A    between atoms: _505  and  _507
REMARK  209  A    between atoms: _507  and  _508
REMARK  210  A    between atoms: _507  and  _510
REMARK  211  A    between atoms: _513  and  _515
REMARK  212  A    between atoms: _515  and  _516
REMARK  213  A    between atoms: _515  and  _518
REMARK  214  A    between atoms: _518  and  _519
REMARK  215  A    between atoms: _522  and  _524
REMARK  216  A    between atoms: _524  and  _525
REMARK  217  A    between atoms: _524  and  _527
REMARK  218  A    between atoms: _527  and  _528
REMARK  219  A    between atoms: _528  and  _529
REMARK  220  A    between atoms: _532  and  _534
REMARK  221  A    between atoms: _534  and  _535
REMARK  222  A    between atoms: _534  and  _537
REMARK  223  A    between atoms: _537  and  _538
REMARK  224  A    between atoms: _541  and  _543
REMARK  225  A    between atoms: _543  and  _544
REMARK  226  A    between atoms: _543  and  _546
REMARK  227  A    between atoms: _546  and  _547
REMARK  228  A    between atoms: _550  and  _552
REMARK  229  A    between atoms: _552  and  _553
REMARK  230  A    between atoms: _552  and  _555
REMARK  231  A    between atoms: _555  and  _556
REMARK  232  A    between atoms: _561  and  _563
REMARK  233  A    between atoms: _563  and  _564
REMARK  234  A    between atoms: _567  and  _569
REMARK  235  A    between atoms: _569  and  _570
REMARK  236  A    between atoms: _569  and  _572
REMARK  237  A    between atoms: _572  and  _573
REMARK  238  A    between atoms: _576  and  _578
REMARK  239  A    between atoms: _578  and  _579
REMARK  240  A    between atoms: _578  and  _581
REMARK  241  A    between atoms: _584  and  _586
REMARK  242  A    between atoms: _586  and  _587
REMARK  243  A    between atoms: _586  and  _589
REMARK  244  A    between atoms: _589  and  _590
REMARK  245  A    between atoms: _590  and  _591
REMARK  246  A    between atoms: _591  and  _592
REMARK  247  A    between atoms: _601  and  _603
REMARK  248  A    between atoms: _603  and  _604
REMARK  249  A    between atoms: _603  and  _606
REMARK  250  A    between atoms: _606  and  _607
REMARK  251  A    between atoms: _610  and  _612
REMARK  252  A    between atoms: _612  and  _613
REMARK  253  A    between atoms: _612  and  _615
REMARK  254  A    between atoms: _615  and  _616
REMARK  255  A    between atoms: _619  and  _621
REMARK  256  A    between atoms: _621  and  _622
REMARK  257  A    between atoms: _621  and  _624
REMARK  258  A    between atoms: _624  and  _625
REMARK  259  A    between atoms: _625  and  _626
REMARK  260  A    between atoms: _631  and  _633
REMARK  261  A    between atoms: _633  and  _634
REMARK  262  A    between atoms: _633  and  _636
REMARK  263  A    between atoms: _639  and  _641
REMARK  264  A    between atoms: _641  and  _642
REMARK  265  A    between atoms: _641  and  _644
REMARK  266  A    between atoms: _644  and  _645
REMARK                            x       y       z     vdW  Elec       q    Type
REMARK                         _______ _______ _______ _____ _____    ______ ____
ROOT
ATOM      1  CA  GLN A   1      -5.630  -6.020  10.653  0.00  0.00    +0.145 C 
ENDROOT
BRANCH   1   2
ATOM      2  C   GLN A   1      -6.782  -5.026  10.647  0.00  0.00    +0.238 C 
ATOM      3  O   GLN A   1      -7.444  -4.818  11.668  0.00  0.00    -0.274 OA
ATOM      4  N   VAL A   2      -7.025  -4.419   9.490  0.00  0.00    -0.298 N 
ATOM      5  H   VAL A   2      -6.428  -4.632   8.666  0.00  0.00    +0.150 HD
BRANCH   4   6
ATOM      6  CA  VAL A   2      -8.112  -3.461   9.356  0.00  0.00    +0.137 C 
BRANCH   6   7
ATOM      7  CB  VAL A   2      -8.146  -2.852   7.936  0.00  0.00    +0.026 C 
ATOM      8  CG2 VAL A   2      -9.293  -1.882   7.819  0.00  0.00    +0.002 C 
ATOM      9  CG1 VAL A   2      -6.829  -2.131   7.636  0.00  0.00    +0.002 C 
ENDBRANCH   6   7
BRANCH   6  10
ATOM     10  C   VAL A   2      -9.445  -4.150   9.651  0.00  0.00    +0.227 C 
ATOM     11  O   VAL A   2     -10.334  -3.559  10.269  0.00  0.00    -0.286 OA
ENDBRANCH   6  10
ENDBRANCH   4   6
ENDBRANCH   1   2
BRANCH   1  12
ATOM     12  N   GLN A   1      -5.626  -6.788   9.417  0.00  0.00    -0.238 NA
ATOM     13  H   GLN A   1      -4.821  -6.708   8.763  0.00  0.00    +0.142 HD
ENDBRANCH   1  12
BRANCH   1  14
ATOM     14  CB  GLN A   1      -4.296  -5.296  10.817  0.00  0.00    +0.036 C 
BRANCH  14  15
ATOM     15  CG  GLN A   1      -4.164  -4.510  12.108  0.00  0.00    +0.087 C 
BRANCH  15  16
ATOM     16  CD  GLN A   1      -2.738  -4.031  12.349  0.00  0.00    +0.219 C 
ATOM     17  OE1 GLN A   1      -1.920  -4.733  12.958  0.00  0.00    -0.275 OA
ATOM     18  NE2 GLN A   1      -2.429  -2.839  11.854  0.00  0.00    -0.329 N 
ATOM     19 HE21 GLN A   1      -1.467  -2.461  11.971  0.00  0.00    +0.145 HD
ATOM     20 HE22 GLN A   1      -3.149  -2.283  11.349  0.00  0.00    +0.145 HD
ENDBRANCH  15  16
ENDBRANCH  14  15
ENDBRANCH   1  14
TORSDOF 8
REMARK  Name = ../refined-set-2016/3v2q/3v2q_pocket.pdb
REMARK  266 active torsions:
REMARK  status: ('A' for Active; 'I' for Inactive)
REMARK    1  A    between atoms: _1  and  _3
REMARK    2  A    between atoms: _3  and  _4
REMARK    3  A    between atoms: _3  and  _6
REMARK    4  A    between atoms: _6  and  _7
REMARK    5  A    between atoms: _7  and  _8
REMARK    6  A    between atoms: _11  and  _13
REMARK    7  A    between atoms: _13  and  _14
REMARK    8  A    between atoms: _13  and  _16
REMARK    9  A    between atoms: _16  and  _17
REMARK   10  A    between atoms: _20  and  _22
REMARK   11  A    between atoms: _22  and  _23
REMARK   12  A    between atoms: _22  and  _25
REMARK   13  A    between atoms: _25  and  _26
REMARK   14  A    between atoms: _29  and  _31
REMARK   15  A    between atoms: _31  and  _32
REMARK   16  A    between atoms: _31  and  _34
REMARK   17  A    between atoms: _34  and  _35
REMARK   18  A    between atoms: _40  and  _42
REMARK   19  A    between atoms: _42  and  _43
REMARK   20  A    between atoms: _46  and  _48
REMARK   21  A    between atoms: _48  and  _49
REMARK   22  A    between atoms: _48  and  _51
REMARK   23  A    between atoms: _51  and  _52
REMARK   24  A    between atoms: _55  and  _57
REMARK   25  A    between atoms: _57  and  _58
REMARK   26  A    between atoms: _57  and  _60
REMARK   27  A    between atoms: _63  and  _65
REMARK   28  A    between atoms: _65  and  _66
REMARK   29  A    between atoms: _65  and  _68
REMARK   30  A    between atoms: _68  and  _69
REMARK   31  A    between atoms: _69  and  _70
REMARK   32  A    between atoms: _70  and  _71
REMARK   33  A    between atoms: _80  and  _82
REMARK   34  A    between atoms: _82  and  _83
REMARK   35  A    between atoms: _82  and  _85
REMARK   36  A    between atoms: _85  and  _86
REMARK   37  A    between atoms: _89  and  _91
REMARK   38  A    between atoms: _91  and  _92
REMARK   39  A    between atoms: _91  and  _94
REMARK   40  A    between atoms: _94  and  _95
REMARK   41  A    between atoms: _98  and  _100
REMARK   42  A    between atoms: _100  and  _101
REMARK   43  A    between atoms: _100  and  _103
REMARK   44  A    between atoms: _103  and  _104
REMARK   45  A    between atoms: _104  and  _105
REMARK   46  A    between atoms: _110  and  _112
REMARK   47  A    between atoms: _112  and  _113
REMARK   48  A    between atoms: _112  and  _115
REMARK   49  A    between atoms: _118  and  _120
REMARK   50  A    between atoms: _120  and  _121
REMARK   51  A    between atoms: _120  and  _123
REMARK   52  A    between atoms: _123  and  _124
REMARK   53  A    between atoms: _127  and  _129
REMARK   54  A    between atoms: _129  and  _130
REMARK   55  A    between atoms: _129  and  _132
REMARK   56  A    between atoms: _132  and  _133
REMARK   57  A    between atoms: _133  and  _134
REMARK   58  A    between atoms: _137  and  _139
REMARK   59  A    between atoms: _139  and  _140
REMARK   60  A    between atoms: _139  and  _142
REMARK   61  A    between atoms: _142  and  _143
REMARK   62  A    between atoms: _146  and  _148
REMARK   63  A    between atoms: _148  and  _149
REMARK   64  A    between atoms: _148  and  _151
REMARK   65  A    between atoms: _151  and  _152
REMARK   66  A    between atoms: _155  and  _157
REMARK   67  A    between atoms: _157  and  _158
REMARK   68  A    between atoms: _157  and  _160
REMARK   69  A    between atoms: _160  and  _161
REMARK   70  A    between atoms: _166  and  _168
REMARK   71  A    between atoms: _168  and  _169
REMARK   72  A    between atoms: _172  and  _174
REMARK   73  A    between atoms: _174  and  _175
REMARK   74  A    between atoms: _174  and  _177
REMARK   75  A    between atoms: _177  and  _178
REMARK   76  A    between atoms: _181  and  _183
REMARK   77  A    between atoms: _183  and  _184
REMARK   78  A    between atoms: _183  and  _186
REMARK   79  A    between atoms: _189  and  _191
REMARK   80  A    between atoms: _191  and  _192
REMARK   81  A    between atoms: _191  and  _194
REMARK   82  A    between atoms: _194  and  _195
REMARK   83  A    between atoms: _195  and  _196
REMARK   84  A    between atoms: _196  and  _197
REMARK   85  A    between atoms: _206  and  _208
REMARK   86  A    between atoms: _208  and  _209
REMARK   87  A    between atoms: _208  and  _211
REMARK   88  A    between atoms: _211  and  _212
REMARK   89  A    between atoms: _215  and  _217
REMARK   90  A    between atoms: _217  and  _218
REMARK   91  A    between atoms: _217  and  _220
REMARK   92  A    between atoms: _220  and  _221
REMARK   93  A    between atoms: _224  and  _226
REMARK   94  A    between atoms: _226  and  _227
REMARK   95  A    between atoms: _226  and  _229
REMARK   96  A    between atoms: _229  and  _230
REMARK   97  A    between atoms: _230  and  _231
REMARK   98  A    between atoms: _236  and  _238
REMARK   99  A    between atoms: _238  and  _239
REMARK  100  A    between atoms: _238  and  _241
REMARK  101  A    between atoms: _244  and  _246
REMARK  102  A    between atoms: _246  and  _247
REMARK  103  A    between atoms: _246  and  _249
REMARK  104  A    between atoms: _249  and  _250
REMARK  105  A    between atoms: _253  and  _255
REMARK  106  A    between atoms: _255  and  _256
REMARK  107  A    between atoms: _255  and  _258
REMARK  108  A    between atoms: _258  and  _259
REMARK  109  A    between atoms: _259  and  _260
REMARK  110  A    between atoms: _263  and  _265
REMARK  111  A    between atoms: _265  and  _266
REMARK  112  A    between atoms: _265  and  _268
REMARK  113  A    between atoms: _268  and  _269
REMARK  114  A    between atoms: _272  and  _274
REMARK  115  A    between atoms: _274  and  _275
REMARK  116  A    between atoms: _274  and  _277
REMARK  117  A    between atoms: _277  and  _278
REMARK  118  A    between atoms: _281  and  _283
REMARK  119  A    between atoms: _283  and  _284
REMARK  120  A    between atoms: _283  and  _286
REMARK  121  A    between atoms: _286  and  _287
REMARK  122  A    between atoms: _292  and  _294
REMARK  123  A    between atoms: _294  and  _295
REMARK  124  A    between atoms: _298  and  _300
REMARK  125  A    between atoms: _300  and  _301
REMARK  126  A    between atoms: _300  and  _303
REMARK  127  A    between atoms: _303  and  _304
REMARK  128  A    between atoms: _307  and  _309
REMARK  129  A    between atoms: _309  and  _310
REMARK  130  A    between atoms: _309  and  _312
REMARK  131  A    between atoms: _315  and  _317
REMARK  132  A    between atoms: _317  and  _318
REMARK  133  A    between atoms: _317  and  _320
REMARK  134  A    between atoms: _320  and  _321
REMARK  135  A    between atoms: _321  and  _322
REMARK  136  A    between atoms: _322  and  _323
REMARK  137  A    between atoms: _332  and  _334
REMARK  138  A    between atoms: _334  and  _335
REMARK  139  A    between atoms: _334  and  _337
REMARK  140  A    between atoms: _337  and  _338
REMARK  141  A    between atoms: _341  and  _343
REMARK  142  A    between atoms: _343  and  _344
REMARK  143  A    between atoms: _343  and  _346
REMARK  144  A    between atoms: _346  and  _347
REMARK  145  A    between atoms: _350  and  _352
REMARK  146  A    between atoms: _352  and  _353
REMARK  147  A    between atoms: _352  and  _355
REMARK  148  A    between atoms: _355  and  _356
REMARK  149  A    between atoms: _356  and  _357
REMARK  150  A    between atoms: _357  and  _358
REMARK  151  A    between atoms: _367  and  _369
REMARK  152  A    between atoms: _369  and  _370
REMARK  153  A    between atoms: _369  and  _372
REMARK  154  A    between atoms: _372  and  _373
REMARK  155  A    between atoms: _373  and  _374
REMARK  156  A    between atoms: _379  and  _381
REMARK  157  A    between atoms: _381  and  _382
REMARK  158  A    between atoms: _381  and  _384
REMARK  159  A    between atoms: _387  and  _389
REMARK  160  A    between atoms: _389  and  _390
REMARK  161  A    between atoms: _389  and  _392
REMARK  162  A    between atoms: _392  and  _393
REMARK  163  A    between atoms: _396  and  _398
REMARK  164  A    between atoms: _398  and  _399
REMARK  165  A    between atoms: _398  and  _401
REMARK  166  A    between atoms: _401  and  _402
REMARK  167  A    between atoms: _402  and  _403
REMARK  168  A    between atoms: _406  and  _408
REMARK  169  A    between atoms: _408  and  _409
REMARK  170  A    between atoms: _408  and  _411
REMARK  171  A    between atoms: _411  and  _412
REMARK  172  A    between atoms: _415  and  _417
REMARK  173  A    between atoms: _417  and  _418
REMARK  174  A    between atoms: _417  and  _420
REMARK  175  A    between atoms: _420  and  _421
REMARK  176  A    between atoms: _424  and  _426
REMARK  177  A    between atoms: _426  and  _427
REMARK  178  A    between atoms: _426  and  _429
REMARK  179  A    between atoms: _429  and  _430
REMARK  180  A    between atoms: _435  and  _437
REMARK  181  A    between atoms: _437  and  _438
REMARK  182  A    between atoms: _441  and  _443
REMARK  183  A    between atoms: _443  and  _444
REMARK  184  A    between atoms: _443  and  _446
REMARK  185  A    between atoms: _446  and  _447
REMARK  186  A    between atoms: _450  and  _452
REMARK  187  A    between atoms: _452  and  _453
REMARK  188  A    between atoms: _452  and  _455
REMARK  189  A    between atoms: _458  and  _460
REMARK  190  A    between atoms: _460  and  _461
REMARK  191  A    between atoms: _460  and  _463
REMARK  192  A    between atoms: _463  and  _464
REMARK  193  A    between atoms: _464  and  _465
REMARK  194  A    between atoms: _465  and  _466
REMARK  195  A    between atoms: _475  and  _477
REMARK  196  A    between atoms: _477  and  _478
REMARK  197  A    between atoms: _477  and  _480
REMARK  198  A    between atoms: _480  and  _481
REMARK  199  A    between atoms: _484  and  _486
REMARK  200  A    between atoms: _486  and  _487
REMARK  201  A    between atoms: _486  and  _489
REMARK  202  A    between atoms: _489  and  _490
REMARK  203  A    between atoms: _493  and  _495
REMARK  204  A    between atoms: _495  and  _496
REMARK  205  A    between atoms: _495  and  _498
REMARK  206  A    between atoms: _498  and  _499
REMARK  207  A    between atoms: _499  and  _500
REMARK  208  A    between atoms: _505  and  _507
REMARK  209  A    between atoms: _507  and  _508
REMARK  210  A    between atoms: _507  and  _510
REMARK  211  A    between atoms: _513  and  _515
REMARK  212  A    between atoms: _515  and  _516
REMARK  213  A    between atoms: _515  and  _518
REMARK  214  A    between atoms: _518  and  _519
REMARK  215  A    between atoms: _522  and  _524
REMARK  216  A    between atoms: _524  and  _525
REMARK  217  A    between atoms: _524  and  _527
REMARK  218  A    between atoms: _527  and  _528
REMARK  219  A    between atoms: _528  and  _529
REMARK  220  A    between atoms: _532  and  _534
REMARK  221  A    between atoms: _534  and  _535
REMARK  222  A    between atoms: _534  and  _537
REMARK  223  A    between atoms: _537  and  _538
REMARK  224  A    between atoms: _541  and  _543
REMARK  225  A    between atoms: _543  and  _544
REMARK  226  A    between atoms: _543  and  _546
REMARK  227  A    between atoms: _546  and  _547
REMARK  228  A    between atoms: _550  and  _552
REMARK  229  A    between atoms: _552  and  _553
REMARK  230  A    between atoms: _552  and  _555
REMARK  231  A    between atoms: _555  and  _556
REMARK  232  A    between atoms: _561  and  _563
REMARK  233  A    between atoms: _563  and  _564
REMARK  234  A    between atoms: _567  and  _569
REMARK  235  A    between atoms: _569  and  _570
REMARK  236  A    between atoms: _569  and  _572
REMARK  237  A    between atoms: _572  and  _573
REMARK  238  A    between atoms: _576  and  _578
REMARK  239  A    between atoms: _578  and  _579
REMARK  240  A    between atoms: _578  and  _581
REMARK  241  A    between atoms: _584  and  _586
REMARK  242  A    between atoms: _586  and  _587
REMARK  243  A    between atoms: _586  and  _589
REMARK  244  A    between atoms: _589  and  _590
REMARK  245  A    between atoms: _590  and  _591
REMARK  246  A    between atoms: _591  and  _592
REMARK  247  A    between atoms: _601  and  _603
REMARK  248  A    between atoms: _603  and  _604
REMARK  249  A    between atoms: _603  and  _606
REMARK  250  A    between atoms: _606  and  _607
REMARK  251  A    between atoms: _610  and  _612
REMARK  252  A    between atoms: _612  and  _613
REMARK  253  A    between atoms: _612  and  _615
REMARK  254  A    between atoms: _615  and  _616
REMARK  255  A    between atoms: _619  and  _621
REMARK  256  A    between atoms: _621  and  _622
REMARK  257  A    between atoms: _621  and  _624
REMARK  258  A    between atoms: _624  and  _625
REMARK  259  A    between atoms: _625  and  _626
REMARK  260  A    between atoms: _631  and  _633
REMARK  261  A    between atoms: _633  and  _634
REMARK  262  A    between atoms: _633  and  _636
REMARK  263  A    between atoms: _639  and  _641
REMARK  264  A    between atoms: _641  and  _642
REMARK  265  A    between atoms: _641  and  _644
REMARK  266  A    between atoms: _644  and  _645
REMARK                            x       y       z     vdW  Elec       q    Type
REMARK                         _______ _______ _______ _____ _____    ______ ____
ROOT
ATOM      1  CA  ILE A   1     -10.081  -3.374  14.119  0.00  0.00    +0.133 C 
ENDROOT
BRANCH   1   2
ATOM      2  N   ILE A   1      -9.808  -4.619  13.420  0.00  0.00    -0.239 NA
ATOM      3  H   ILE A   1      -9.222  -4.607  12.561  0.00  0.00    +0.142 HD
ENDBRANCH   1   2
BRANCH   1   4
ATOM      4  C   ILE A   1     -11.528  -2.972  13.895  0.00  0.00    +0.224 C 
ATOM      5  O   ILE A   1     -12.200  -2.498  14.811  0.00  0.00    -0.287 OA
ENDBRANCH   1   4
BRANCH   1   6
ATOM      6  CB  ILE A   1      -9.143  -2.250  13.636  0.00  0.00    +0.023 C 
ATOM      7  CG2 ILE A   1      -9.616  -0.894  14.167  0.00  0.00    +0.002 C 
BRANCH   6   8
ATOM      8  CG1 ILE A   1      -7.710  -2.568  14.087  0.00  0.00    +0.002 C 
ATOM      9  CD1 ILE A   1      -6.691  -1.509  13.726  0.00  0.00    +0.000 C 
ENDBRANCH   6   8
ENDBRANCH   1   6
TORSDOF 4
REMARK  Name = ../refined-set-2016/3v2q/3v2q_pocket.pdb
REMARK  266 active torsions:
REMARK  status: ('A' for Active; 'I' for Inactive)
REMARK    1  A    between atoms: _1  and  _3
REMARK    2  A    between atoms: _3  and  _4
REMARK    3  A    between atoms: _3  and  _6
REMARK    4  A    between atoms: _6  and  _7
REMARK    5  A    between atoms: _7  and  _8
REMARK    6  A    between atoms: _11  and  _13
REMARK    7  A    between atoms: _13  and  _14
REMARK    8  A    between atoms: _13  and  _16
REMARK    9  A    between atoms: _16  and  _17
REMARK   10  A    between atoms: _20  and  _22
REMARK   11  A    between atoms: _22  and  _23
REMARK   12  A    between atoms: _22  and  _25
REMARK   13  A    between atoms: _25  and  _26
REMARK   14  A    between atoms: _29  and  _31
REMARK   15  A    between atoms: _31  and  _32
REMARK   16  A    between atoms: _31  and  _34
REMARK   17  A    between atoms: _34  and  _35
REMARK   18  A    between atoms: _40  and  _42
REMARK   19  A    between atoms: _42  and  _43
REMARK   20  A    between atoms: _46  and  _48
REMARK   21  A    between atoms: _48  and  _49
REMARK   22  A    between atoms: _48  and  _51
REMARK   23  A    between atoms: _51  and  _52
REMARK   24  A    between atoms: _55  and  _57
REMARK   25  A    between atoms: _57  and  _58
REMARK   26  A    between atoms: _57  and  _60
REMARK   27  A    between atoms: _63  and  _65
REMARK   28  A    between atoms: _65  and  _66
REMARK   29  A    between atoms: _65  and  _68
REMARK   30  A    between atoms: _68  and  _69
REMARK   31  A    between atoms: _69  and  _70
REMARK   32  A    between atoms: _70  and  _71
REMARK   33  A    between atoms: _80  and  _82
REMARK   34  A    between atoms: _82  and  _83
REMARK   35  A    between atoms: _82  and  _85
REMARK   36  A    between atoms: _85  and  _86
REMARK   37  A    between atoms: _89  and  _91
REMARK   38  A    between atoms: _91  and  _92
REMARK   39  A    between atoms: _91  and  _94
REMARK   40  A    between atoms: _94  and  _95
REMARK   41  A    between atoms: _98  and  _100
REMARK   42  A    between atoms: _100  and  _101
REMARK   43  A    between atoms: _100  and  _103
REMARK   44  A    between atoms: _103  and  _104
REMARK   45  A    between atoms: _104  and  _105
REMARK   46  A    between atoms: _110  and  _112
REMARK   47  A    between atoms: _112  and  _113
REMARK   48  A    between atoms: _112  and  _115
REMARK   49  A    between atoms: _118  and  _120
REMARK   50  A    between atoms: _120  and  _121
REMARK   51  A    between atoms: _120  and  _123
REMARK   52  A    between atoms: _123  and  _124
REMARK   53  A    between atoms: _127  and  _129
REMARK   54  A    between atoms: _129  and  _130
REMARK   55  A    between atoms: _129  and  _132
REMARK   56  A    between atoms: _132  and  _133
REMARK   57  A    between atoms: _133  and  _134
REMARK   58  A    between atoms: _137  and  _139
REMARK   59  A    between atoms: _139  and  _140
REMARK   60  A    between atoms: _139  and  _142
REMARK   61  A    between atoms: _142  and  _143
REMARK   62  A    between atoms: _146  and  _148
REMARK   63  A    between atoms: _148  and  _149
REMARK   64  A    between atoms: _148  and  _151
REMARK   65  A    between atoms: _151  and  _152
REMARK   66  A    between atoms: _155  and  _157
REMARK   67  A    between atoms: _157  and  _158
REMARK   68  A    between atoms: _157  and  _160
REMARK   69  A    between atoms: _160  and  _161
REMARK   70  A    between atoms: _166  and  _168
REMARK   71  A    between atoms: _168  and  _169
REMARK   72  A    between atoms: _172  and  _174
REMARK   73  A    between atoms: _174  and  _175
REMARK   74  A    between atoms: _174  and  _177
REMARK   75  A    between atoms: _177  and  _178
REMARK   76  A    between atoms: _181  and  _183
REMARK   77  A    between atoms: _183  and  _184
REMARK   78  A    between atoms: _183  and  _186
REMARK   79  A    between atoms: _189  and  _191
REMARK   80  A    between atoms: _191  and  _192
REMARK   81  A    between atoms: _191  and  _194
REMARK   82  A    between atoms: _194  and  _195
REMARK   83  A    between atoms: _195  and  _196
REMARK   84  A    between atoms: _196  and  _197
REMARK   85  A    between atoms: _206  and  _208
REMARK   86  A    between atoms: _208  and  _209
REMARK   87  A    between atoms: _208  and  _211
REMARK   88  A    between atoms: _211  and  _212
REMARK   89  A    between atoms: _215  and  _217
REMARK   90  A    between atoms: _217  and  _218
REMARK   91  A    between atoms: _217  and  _220
REMARK   92  A    between atoms: _220  and  _221
REMARK   93  A    between atoms: _224  and  _226
REMARK   94  A    between atoms: _226  and  _227
REMARK   95  A    between atoms: _226  and  _229
REMARK   96  A    between atoms: _229  and  _230
REMARK   97  A    between atoms: _230  and  _231
REMARK   98  A    between atoms: _236  and  _238
REMARK   99  A    between atoms: _238  and  _239
REMARK  100  A    between atoms: _238  and  _241
REMARK  101  A    between atoms: _244  and  _246
REMARK  102  A    between atoms: _246  and  _247
REMARK  103  A    between atoms: _246  and  _249
REMARK  104  A    between atoms: _249  and  _250
REMARK  105  A    between atoms: _253  and  _255
REMARK  106  A    between atoms: _255  and  _256
REMARK  107  A    between atoms: _255  and  _258
REMARK  108  A    between atoms: _258  and  _259
REMARK  109  A    between atoms: _259  and  _260
REMARK  110  A    between atoms: _263  and  _265
REMARK  111  A    between atoms: _265  and  _266
REMARK  112  A    between atoms: _265  and  _268
REMARK  113  A    between atoms: _268  and  _269
REMARK  114  A    between atoms: _272  and  _274
REMARK  115  A    between atoms: _274  and  _275
REMARK  116  A    between atoms: _274  and  _277
REMARK  117  A    between atoms: _277  and  _278
REMARK  118  A    between atoms: _281  and  _283
REMARK  119  A    between atoms: _283  and  _284
REMARK  120  A    between atoms: _283  and  _286
REMARK  121  A    between atoms: _286  and  _287
REMARK  122  A    between atoms: _292  and  _294
REMARK  123  A    between atoms: _294  and  _295
REMARK  124  A    between atoms: _298  and  _300
REMARK  125  A    between atoms: _300  and  _301
REMARK  126  A    between atoms: _300  and  _303
REMARK  127  A    between atoms: _303  and  _304
REMARK  128  A    between atoms: _307  and  _309
REMARK  129  A    between atoms: _309  and  _310
REMARK  130  A    between atoms: _309  and  _312
REMARK  131  A    between atoms: _315  and  _317
REMARK  132  A    between atoms: _317  and  _318
REMARK  133  A    between atoms: _317  and  _320
REMARK  134  A    between atoms: _320  and  _321
REMARK  135  A    between atoms: _321  and  _322
REMARK  136  A    between atoms: _322  and  _323
REMARK  137  A    between atoms: _332  and  _334
REMARK  138  A    between atoms: _334  and  _335
REMARK  139  A    between atoms: _334  and  _337
REMARK  140  A    between atoms: _337  and  _338
REMARK  141  A    between atoms: _341  and  _343
REMARK  142  A    between atoms: _343  and  _344
REMARK  143  A    between atoms: _343  and  _346
REMARK  144  A    between atoms: _346  and  _347
REMARK  145  A    between atoms: _350  and  _352
REMARK  146  A    between atoms: _352  and  _353
REMARK  147  A    between atoms: _352  and  _355
REMARK  148  A    between atoms: _355  and  _356
REMARK  149  A    between atoms: _356  and  _357
REMARK  150  A    between atoms: _357  and  _358
REMARK  151  A    between atoms: _367  and  _369
REMARK  152  A    between atoms: _369  and  _370
REMARK  153  A    between atoms: _369  and  _372
REMARK  154  A    between atoms: _372  and  _373
REMARK  155  A    between atoms: _373  and  _374
REMARK  156  A    between atoms: _379  and  _381
REMARK  157  A    between atoms: _381  and  _382
REMARK  158  A    between atoms: _381  and  _384
REMARK  159  A    between atoms: _387  and  _389
REMARK  160  A    between atoms: _389  and  _390
REMARK  161  A    between atoms: _389  and  _392
REMARK  162  A    between atoms: _392  and  _393
REMARK  163  A    between atoms: _396  and  _398
REMARK  164  A    between atoms: _398  and  _399
REMARK  165  A    between atoms: _398  and  _401
REMARK  166  A    between atoms: _401  and  _402
REMARK  167  A    between atoms: _402  and  _403
REMARK  168  A    between atoms: _406  and  _408
REMARK  169  A    between atoms: _408  and  _409
REMARK  170  A    between atoms: _408  and  _411
REMARK  171  A    between atoms: _411  and  _412
REMARK  172  A    between atoms: _415  and  _417
REMARK  173  A    between atoms: _417  and  _418
REMARK  174  A    between atoms: _417  and  _420
REMARK  175  A    between atoms: _420  and  _421
REMARK  176  A    between atoms: _424  and  _426
REMARK  177  A    between atoms: _426  and  _427
REMARK  178  A    between atoms: _426  and  _429
REMARK  179  A    between atoms: _429  and  _430
REMARK  180  A    between atoms: _435  and  _437
REMARK  181  A    between atoms: _437  and  _438
REMARK  182  A    between atoms: _441  and  _443
REMARK  183  A    between atoms: _443  and  _444
REMARK  184  A    between atoms: _443  and  _446
REMARK  185  A    between atoms: _446  and  _447
REMARK  186  A    between atoms: _450  and  _452
REMARK  187  A    between atoms: _452  and  _453
REMARK  188  A    between atoms: _452  and  _455
REMARK  189  A    between atoms: _458  and  _460
REMARK  190  A    between atoms: _460  and  _461
REMARK  191  A    between atoms: _460  and  _463
REMARK  192  A    between atoms: _463  and  _464
REMARK  193  A    between atoms: _464  and  _465
REMARK  194  A    between atoms: _465  and  _466
REMARK  195  A    between atoms: _475  and  _477
REMARK  196  A    between atoms: _477  and  _478
REMARK  197  A    between atoms: _477  and  _480
REMARK  198  A    between atoms: _480  and  _481
REMARK  199  A    between atoms: _484  and  _486
REMARK  200  A    between atoms: _486  and  _487
REMARK  201  A    between atoms: _486  and  _489
REMARK  202  A    between atoms: _489  and  _490
REMARK  203  A    between atoms: _493  and  _495
REMARK  204  A    between atoms: _495  and  _496
REMARK  205  A    between atoms: _495  and  _498
REMARK  206  A    between atoms: _498  and  _499
REMARK  207  A    between atoms: _499  and  _500
REMARK  208  A    between atoms: _505  and  _507
REMARK  209  A    between atoms: _507  and  _508
REMARK  210  A    between atoms: _507  and  _510
REMARK  211  A    between atoms: _513  and  _515
REMARK  212  A    between atoms: _515  and  _516
REMARK  213  A    between atoms: _515  and  _518
REMARK  214  A    between atoms: _518  and  _519
REMARK  215  A    between atoms: _522  and  _524
REMARK  216  A    between atoms: _524  and  _525
REMARK  217  A    between atoms: _524  and  _527
REMARK  218  A    between atoms: _527  and  _528
REMARK  219  A    between atoms: _528  and  _529
REMARK  220  A    between atoms: _532  and  _534
REMARK  221  A    between atoms: _534  and  _535
REMARK  222  A    between atoms: _534  and  _537
REMARK  223  A    between atoms: _537  and  _538
REMARK  224  A    between atoms: _541  and  _543
REMARK  225  A    between atoms: _543  and  _544
REMARK  226  A    between atoms: _543  and  _546
REMARK  227  A    between atoms: _546  and  _547
REMARK  228  A    between atoms: _550  and  _552
REMARK  229  A    between atoms: _552  and  _553
REMARK  230  A    between atoms: _552  and  _555
REMARK  231  A    between atoms: _555  and  _556
REMARK  232  A    between atoms: _561  and  _563
REMARK  233  A    between atoms: _563  and  _564
REMARK  234  A    between atoms: _567  and  _569
REMARK  235  A    between atoms: _569  and  _570
REMARK  236  A    between atoms: _569  and  _572
REMARK  237  A    between atoms: _572  and  _573
REMARK  238  A    between atoms: _576  and  _578
REMARK  239  A    between atoms: _578  and  _579
REMARK  240  A    between atoms: _578  and  _581
REMARK  241  A    between atoms: _584  and  _586
REMARK  242  A    between atoms: _586  and  _587
REMARK  243  A    between atoms: _586  and  _589
REMARK  244  A    between atoms: _589  and  _590
REMARK  245  A    between atoms: _590  and  _591
REMARK  246  A    between atoms: _591  and  _592
REMARK  247  A    between atoms: _601  and  _603
REMARK  248  A    between atoms: _603  and  _604
REMARK  249  A    between atoms: _603  and  _606
REMARK  250  A    between atoms: _606  and  _607
REMARK  251  A    between atoms: _610  and  _612
REMARK  252  A    between atoms: _612  and  _613
REMARK  253  A    between atoms: _612  and  _615
REMARK  254  A    between atoms: _615  and  _616
REMARK  255  A    between atoms: _619  and  _621
REMARK  256  A    between atoms: _621  and  _622
REMARK  257  A    between atoms: _621  and  _624
REMARK  258  A    between atoms: _624  and  _625
REMARK  259  A    between atoms: _625  and  _626
REMARK  260  A    between atoms: _631  and  _633
REMARK  261  A    between atoms: _633  and  _634
REMARK  262  A    between atoms: _633  and  _636
REMARK  263  A    between atoms: _639  and  _641
REMARK  264  A    between atoms: _641  and  _642
REMARK  265  A    between atoms: _641  and  _644
REMARK  266  A    between atoms: _644  and  _645
REMARK                            x       y       z     vdW  Elec       q    Type
REMARK                         _______ _______ _______ _____ _____    ______ ____
ROOT
ATOM      1  C   GLU A   1       9.596  -2.650  -8.743  0.00  0.00    +0.238 C 
ATOM      2  O   GLU A   1       8.772  -2.632  -7.834  0.00  0.00    -0.274 OA
ATOM      3  N   LEU A   2      10.262  -1.564  -9.127  0.00  0.00    -0.298 N 
ATOM      4  H   LEU A   2      10.948  -1.635  -9.905  0.00  0.00    +0.150 HD
ENDROOT
BRANCH   1   5
ATOM      5  CA  GLU A   1       9.907  -3.950  -9.494  0.00  0.00    +0.145 C 
BRANCH   5   6
ATOM      6  N   GLU A   1      10.014  -3.650 -10.918  0.00  0.00    -0.238 NA
ATOM      7  H   GLU A   1      10.929  -3.756 -11.400  0.00  0.00    +0.142 HD
ENDBRANCH   5   6
BRANCH   5   8
ATOM      8  CB  GLU A   1      11.218  -4.534  -8.956  0.00  0.00    +0.038 C 
BRANCH   8   9
ATOM      9  CG  GLU A   1      11.551  -5.918  -9.457  0.00  0.00    +0.116 C 
BRANCH   9  10
ATOM     10  CD  GLU A   1      10.434  -6.917  -9.199  0.00  0.00    +0.365 C 
ATOM     11  OE2 GLU A   1      10.001  -7.064  -8.036  0.00  0.00    -0.246 OA
ATOM     12  OE1 GLU A   1       9.988  -7.553 -10.171  0.00  0.00    -0.246 OA
ENDBRANCH   9  10
ENDBRANCH   8   9
ENDBRANCH   5   8
ENDBRANCH   1   5
BRANCH   3  13
ATOM     13  CA  LEU A   2      10.048  -0.270  -8.475  0.00  0.00    +0.137 C 
BRANCH  13  14
ATOM     14  C   LEU A   2       8.606   0.209  -8.623  0.00  0.00    +0.227 C 
ATOM     15  O   LEU A   2       8.029   0.742  -7.669  0.00  0.00    -0.286 OA
ENDBRANCH  13  14
BRANCH  13  16
ATOM     16  CB  LEU A   2      11.018   0.776  -9.030  0.00  0.00    +0.028 C 
BRANCH  16  17
ATOM     17  CG  LEU A   2      12.487   0.524  -8.668  0.00  0.00    +0.002 C 
ATOM     18  CD2 LEU A   2      12.653   0.643  -7.168  0.00  0.00    +0.000 C 
ATOM     19  CD1 LEU A   2      13.400   1.512  -9.384  0.00  0.00    +0.000 C 
ENDBRANCH  16  17
ENDBRANCH  13  16
ENDBRANCH   3  13
TORSDOF 9
REMARK  Name = ../refined-set-2016/3v2q/3v2q_pocket.pdb
REMARK  266 active torsions:
REMARK  status: ('A' for Active; 'I' for Inactive)
REMARK    1  A    between atoms: _1  and  _3
REMARK    2  A    between atoms: _3  and  _4
REMARK    3  A    between atoms: _3  and  _6
REMARK    4  A    between atoms: _6  and  _7
REMARK    5  A    between atoms: _7  and  _8
REMARK    6  A    between atoms: _11  and  _13
REMARK    7  A    between atoms: _13  and  _14
REMARK    8  A    between atoms: _13  and  _16
REMARK    9  A    between atoms: _16  and  _17
REMARK   10  A    between atoms: _20  and  _22
REMARK   11  A    between atoms: _22  and  _23
REMARK   12  A    between atoms: _22  and  _25
REMARK   13  A    between atoms: _25  and  _26
REMARK   14  A    between atoms: _29  and  _31
REMARK   15  A    between atoms: _31  and  _32
REMARK   16  A    between atoms: _31  and  _34
REMARK   17  A    between atoms: _34  and  _35
REMARK   18  A    between atoms: _40  and  _42
REMARK   19  A    between atoms: _42  and  _43
REMARK   20  A    between atoms: _46  and  _48
REMARK   21  A    between atoms: _48  and  _49
REMARK   22  A    between atoms: _48  and  _51
REMARK   23  A    between atoms: _51  and  _52
REMARK   24  A    between atoms: _55  and  _57
REMARK   25  A    between atoms: _57  and  _58
REMARK   26  A    between atoms: _57  and  _60
REMARK   27  A    between atoms: _63  and  _65
REMARK   28  A    between atoms: _65  and  _66
REMARK   29  A    between atoms: _65  and  _68
REMARK   30  A    between atoms: _68  and  _69
REMARK   31  A    between atoms: _69  and  _70
REMARK   32  A    between atoms: _70  and  _71
REMARK   33  A    between atoms: _80  and  _82
REMARK   34  A    between atoms: _82  and  _83
REMARK   35  A    between atoms: _82  and  _85
REMARK   36  A    between atoms: _85  and  _86
REMARK   37  A    between atoms: _89  and  _91
REMARK   38  A    between atoms: _91  and  _92
REMARK   39  A    between atoms: _91  and  _94
REMARK   40  A    between atoms: _94  and  _95
REMARK   41  A    between atoms: _98  and  _100
REMARK   42  A    between atoms: _100  and  _101
REMARK   43  A    between atoms: _100  and  _103
REMARK   44  A    between atoms: _103  and  _104
REMARK   45  A    between atoms: _104  and  _105
REMARK   46  A    between atoms: _110  and  _112
REMARK   47  A    between atoms: _112  and  _113
REMARK   48  A    between atoms: _112  and  _115
REMARK   49  A    between atoms: _118  and  _120
REMARK   50  A    between atoms: _120  and  _121
REMARK   51  A    between atoms: _120  and  _123
REMARK   52  A    between atoms: _123  and  _124
REMARK   53  A    between atoms: _127  and  _129
REMARK   54  A    between atoms: _129  and  _130
REMARK   55  A    between atoms: _129  and  _132
REMARK   56  A    between atoms: _132  and  _133
REMARK   57  A    between atoms: _133  and  _134
REMARK   58  A    between atoms: _137  and  _139
REMARK   59  A    between atoms: _139  and  _140
REMARK   60  A    between atoms: _139  and  _142
REMARK   61  A    between atoms: _142  and  _143
REMARK   62  A    between atoms: _146  and  _148
REMARK   63  A    between atoms: _148  and  _149
REMARK   64  A    between atoms: _148  and  _151
REMARK   65  A    between atoms: _151  and  _152
REMARK   66  A    between atoms: _155  and  _157
REMARK   67  A    between atoms: _157  and  _158
REMARK   68  A    between atoms: _157  and  _160
REMARK   69  A    between atoms: _160  and  _161
REMARK   70  A    between atoms: _166  and  _168
REMARK   71  A    between atoms: _168  and  _169
REMARK   72  A    between atoms: _172  and  _174
REMARK   73  A    between atoms: _174  and  _175
REMARK   74  A    between atoms: _174  and  _177
REMARK   75  A    between atoms: _177  and  _178
REMARK   76  A    between atoms: _181  and  _183
REMARK   77  A    between atoms: _183  and  _184
REMARK   78  A    between atoms: _183  and  _186
REMARK   79  A    between atoms: _189  and  _191
REMARK   80  A    between atoms: _191  and  _192
REMARK   81  A    between atoms: _191  and  _194
REMARK   82  A    between atoms: _194  and  _195
REMARK   83  A    between atoms: _195  and  _196
REMARK   84  A    between atoms: _196  and  _197
REMARK   85  A    between atoms: _206  and  _208
REMARK   86  A    between atoms: _208  and  _209
REMARK   87  A    between atoms: _208  and  _211
REMARK   88  A    between atoms: _211  and  _212
REMARK   89  A    between atoms: _215  and  _217
REMARK   90  A    between atoms: _217  and  _218
REMARK   91  A    between atoms: _217  and  _220
REMARK   92  A    between atoms: _220  and  _221
REMARK   93  A    between atoms: _224  and  _226
REMARK   94  A    between atoms: _226  and  _227
REMARK   95  A    between atoms: _226  and  _229
REMARK   96  A    between atoms: _229  and  _230
REMARK   97  A    between atoms: _230  and  _231
REMARK   98  A    between atoms: _236  and  _238
REMARK   99  A    between atoms: _238  and  _239
REMARK  100  A    between atoms: _238  and  _241
REMARK  101  A    between atoms: _244  and  _246
REMARK  102  A    between atoms: _246  and  _247
REMARK  103  A    between atoms: _246  and  _249
REMARK  104  A    between atoms: _249  and  _250
REMARK  105  A    between atoms: _253  and  _255
REMARK  106  A    between atoms: _255  and  _256
REMARK  107  A    between atoms: _255  and  _258
REMARK  108  A    between atoms: _258  and  _259
REMARK  109  A    between atoms: _259  and  _260
REMARK  110  A    between atoms: _263  and  _265
REMARK  111  A    between atoms: _265  and  _266
REMARK  112  A    between atoms: _265  and  _268
REMARK  113  A    between atoms: _268  and  _269
REMARK  114  A    between atoms: _272  and  _274
REMARK  115  A    between atoms: _274  and  _275
REMARK  116  A    between atoms: _274  and  _277
REMARK  117  A    between atoms: _277  and  _278
REMARK  118  A    between atoms: _281  and  _283
REMARK  119  A    between atoms: _283  and  _284
REMARK  120  A    between atoms: _283  and  _286
REMARK  121  A    between atoms: _286  and  _287
REMARK  122  A    between atoms: _292  and  _294
REMARK  123  A    between atoms: _294  and  _295
REMARK  124  A    between atoms: _298  and  _300
REMARK  125  A    between atoms: _300  and  _301
REMARK  126  A    between atoms: _300  and  _303
REMARK  127  A    between atoms: _303  and  _304
REMARK  128  A    between atoms: _307  and  _309
REMARK  129  A    between atoms: _309  and  _310
REMARK  130  A    between atoms: _309  and  _312
REMARK  131  A    between atoms: _315  and  _317
REMARK  132  A    between atoms: _317  and  _318
REMARK  133  A    between atoms: _317  and  _320
REMARK  134  A    between atoms: _320  and  _321
REMARK  135  A    between atoms: _321  and  _322
REMARK  136  A    between atoms: _322  and  _323
REMARK  137  A    between atoms: _332  and  _334
REMARK  138  A    between atoms: _334  and  _335
REMARK  139  A    between atoms: _334  and  _337
REMARK  140  A    between atoms: _337  and  _338
REMARK  141  A    between atoms: _341  and  _343
REMARK  142  A    between atoms: _343  and  _344
REMARK  143  A    between atoms: _343  and  _346
REMARK  144  A    between atoms: _346  and  _347
REMARK  145  A    between atoms: _350  and  _352
REMARK  146  A    between atoms: _352  and  _353
REMARK  147  A    between atoms: _352  and  _355
REMARK  148  A    between atoms: _355  and  _356
REMARK  149  A    between atoms: _356  and  _357
REMARK  150  A    between atoms: _357  and  _358
REMARK  151  A    between atoms: _367  and  _369
REMARK  152  A    between atoms: _369  and  _370
REMARK  153  A    between atoms: _369  and  _372
REMARK  154  A    between atoms: _372  and  _373
REMARK  155  A    between atoms: _373  and  _374
REMARK  156  A    between atoms: _379  and  _381
REMARK  157  A    between atoms: _381  and  _382
REMARK  158  A    between atoms: _381  and  _384
REMARK  159  A    between atoms: _387  and  _389
REMARK  160  A    between atoms: _389  and  _390
REMARK  161  A    between atoms: _389  and  _392
REMARK  162  A    between atoms: _392  and  _393
REMARK  163  A    between atoms: _396  and  _398
REMARK  164  A    between atoms: _398  and  _399
REMARK  165  A    between atoms: _398  and  _401
REMARK  166  A    between atoms: _401  and  _402
REMARK  167  A    between atoms: _402  and  _403
REMARK  168  A    between atoms: _406  and  _408
REMARK  169  A    between atoms: _408  and  _409
REMARK  170  A    between atoms: _408  and  _411
REMARK  171  A    between atoms: _411  and  _412
REMARK  172  A    between atoms: _415  and  _417
REMARK  173  A    between atoms: _417  and  _418
REMARK  174  A    between atoms: _417  and  _420
REMARK  175  A    between atoms: _420  and  _421
REMARK  176  A    between atoms: _424  and  _426
REMARK  177  A    between atoms: _426  and  _427
REMARK  178  A    between atoms: _426  and  _429
REMARK  179  A    between atoms: _429  and  _430
REMARK  180  A    between atoms: _435  and  _437
REMARK  181  A    between atoms: _437  and  _438
REMARK  182  A    between atoms: _441  and  _443
REMARK  183  A    between atoms: _443  and  _444
REMARK  184  A    between atoms: _443  and  _446
REMARK  185  A    between atoms: _446  and  _447
REMARK  186  A    between atoms: _450  and  _452
REMARK  187  A    between atoms: _452  and  _453
REMARK  188  A    between atoms: _452  and  _455
REMARK  189  A    between atoms: _458  and  _460
REMARK  190  A    between atoms: _460  and  _461
REMARK  191  A    between atoms: _460  and  _463
REMARK  192  A    between atoms: _463  and  _464
REMARK  193  A    between atoms: _464  and  _465
REMARK  194  A    between atoms: _465  and  _466
REMARK  195  A    between atoms: _475  and  _477
REMARK  196  A    between atoms: _477  and  _478
REMARK  197  A    between atoms: _477  and  _480
REMARK  198  A    between atoms: _480  and  _481
REMARK  199  A    between atoms: _484  and  _486
REMARK  200  A    between atoms: _486  and  _487
REMARK  201  A    between atoms: _486  and  _489
REMARK  202  A    between atoms: _489  and  _490
REMARK  203  A    between atoms: _493  and  _495
REMARK  204  A    between atoms: _495  and  _496
REMARK  205  A    between atoms: _495  and  _498
REMARK  206  A    between atoms: _498  and  _499
REMARK  207  A    between atoms: _499  and  _500
REMARK  208  A    between atoms: _505  and  _507
REMARK  209  A    between atoms: _507  and  _508
REMARK  210  A    between atoms: _507  and  _510
REMARK  211  A    between atoms: _513  and  _515
REMARK  212  A    between atoms: _515  and  _516
REMARK  213  A    between atoms: _515  and  _518
REMARK  214  A    between atoms: _518  and  _519
REMARK  215  A    between atoms: _522  and  _524
REMARK  216  A    between atoms: _524  and  _525
REMARK  217  A    between atoms: _524  and  _527
REMARK  218  A    between atoms: _527  and  _528
REMARK  219  A    between atoms: _528  and  _529
REMARK  220  A    between atoms: _532  and  _534
REMARK  221  A    between atoms: _534  and  _535
REMARK  222  A    between atoms: _534  and  _537
REMARK  223  A    between atoms: _537  and  _538
REMARK  224  A    between atoms: _541  and  _543
REMARK  225  A    between atoms: _543  and  _544
REMARK  226  A    between atoms: _543  and  _546
REMARK  227  A    between atoms: _546  and  _547
REMARK  228  A    between atoms: _550  and  _552
REMARK  229  A    between atoms: _552  and  _553
REMARK  230  A    between atoms: _552  and  _555
REMARK  231  A    between atoms: _555  and  _556
REMARK  232  A    between atoms: _561  and  _563
REMARK  233  A    between atoms: _563  and  _564
REMARK  234  A    between atoms: _567  and  _569
REMARK  235  A    between atoms: _569  and  _570
REMARK  236  A    between atoms: _569  and  _572
REMARK  237  A    between atoms: _572  and  _573
REMARK  238  A    between atoms: _576  and  _578
REMARK  239  A    between atoms: _578  and  _579
REMARK  240  A    between atoms: _578  and  _581
REMARK  241  A    between atoms: _584  and  _586
REMARK  242  A    between atoms: _586  and  _587
REMARK  243  A    between atoms: _586  and  _589
REMARK  244  A    between atoms: _589  and  _590
REMARK  245  A    between atoms: _590  and  _591
REMARK  246  A    between atoms: _591  and  _592
REMARK  247  A    between atoms: _601  and  _603
REMARK  248  A    between atoms: _603  and  _604
REMARK  249  A    between atoms: _603  and  _606
REMARK  250  A    between atoms: _606  and  _607
REMARK  251  A    between atoms: _610  and  _612
REMARK  252  A    between atoms: _612  and  _613
REMARK  253  A    between atoms: _612  and  _615
REMARK  254  A    between atoms: _615  and  _616
REMARK  255  A    between atoms: _619  and  _621
REMARK  256  A    between atoms: _621  and  _622
REMARK  257  A    between atoms: _621  and  _624
REMARK  258  A    between atoms: _624  and  _625
REMARK  259  A    between atoms: _625  and  _626
REMARK  260  A    between atoms: _631  and  _633
REMARK  261  A    between atoms: _633  and  _634
REMARK  262  A    between atoms: _633  and  _636
REMARK  263  A    between atoms: _639  and  _641
REMARK  264  A    between atoms: _641  and  _642
REMARK  265  A    between atoms: _641  and  _644
REMARK  266  A    between atoms: _644  and  _645
REMARK                            x       y       z     vdW  Elec       q    Type
REMARK                         _______ _______ _______ _____ _____    ______ ____
ROOT
ATOM      1  C   THR A   1       5.754  -0.212  -4.704  0.00  0.00    +0.241 C 
ATOM      2  O   THR A   1       5.181  -0.034  -3.631  0.00  0.00    -0.274 OA
ATOM      3  N   ASN A   2       5.699   0.656  -5.703  0.00  0.00    -0.298 N 
ATOM      4  H   ASN A   2       6.212   0.449  -6.584  0.00  0.00    +0.150 HD
ENDROOT
BRANCH   1   5
ATOM      5  CA  THR A   1       6.599  -1.459  -4.962  0.00  0.00    +0.172 C 
BRANCH   5   6
ATOM      6  N   THR A   1       6.393  -1.884  -6.350  0.00  0.00    -0.236 NA
ATOM      7  H   THR A   1       7.210  -1.898  -6.993  0.00  0.00    +0.142 HD
ENDBRANCH   5   6
BRANCH   5   8
ATOM      8  CB  THR A   1       8.084  -1.074  -4.700  0.00  0.00    +0.135 C 
ATOM      9  CG2 THR A   1       8.239  -0.366  -3.359  0.00  0.00    +0.034 C 
BRANCH   8  10
ATOM     10  OG1 THR A   1       8.894  -2.248  -4.707  0.00  0.00    -0.383 OA
ATOM     11  HG1 THR A   1       8.821  -2.693  -5.588  0.00  0.00    +0.210 HD
ENDBRANCH   8  10
ENDBRANCH   5   8
ENDBRANCH   1   5
BRANCH   3  12
ATOM     12  CA  ASN A   2       4.942   1.886  -5.599  0.00  0.00    +0.146 C 
BRANCH  12  13
ATOM     13  C   ASN A   2       3.452   1.600  -5.490  0.00  0.00    +0.227 C 
ATOM     14  O   ASN A   2       2.773   2.146  -4.632  0.00  0.00    -0.286 OA
ENDBRANCH  12  13
BRANCH  12  15
ATOM     15  CB  ASN A   2       5.223   2.766  -6.814  0.00  0.00    +0.112 C 
BRANCH  15  16
ATOM     16  CG  ASN A   2       5.479   4.197  -6.431  0.00  0.00    +0.222 C 
ATOM     17  OD1 ASN A   2       6.376   4.483  -5.632  0.00  0.00    -0.275 OA
ATOM     18  ND2 ASN A   2       4.691   5.112  -6.989  0.00  0.00    -0.329 N 
ATOM     19 HD21 ASN A   2       4.817   6.118  -6.757  0.00  0.00    +0.145 HD
ATOM     20 HD22 ASN A   2       3.949   4.821  -7.657  0.00  0.00    +0.145 HD
ENDBRANCH  15  16
ENDBRANCH  12  15
ENDBRANCH   3  12
TORSDOF 8
REMARK  Name = ../refined-set-2016/3v2q/3v2q_pocket.pdb
REMARK  266 active torsions:
REMARK  status: ('A' for Active; 'I' for Inactive)
REMARK    1  A    between atoms: _1  and  _3
REMARK    2  A    between atoms: _3  and  _4
REMARK    3  A    between atoms: _3  and  _6
REMARK    4  A    between atoms: _6  and  _7
REMARK    5  A    between atoms: _7  and  _8
REMARK    6  A    between atoms: _11  and  _13
REMARK    7  A    between atoms: _13  and  _14
REMARK    8  A    between atoms: _13  and  _16
REMARK    9  A    between atoms: _16  and  _17
REMARK   10  A    between atoms: _20  and  _22
REMARK   11  A    between atoms: _22  and  _23
REMARK   12  A    between atoms: _22  and  _25
REMARK   13  A    between atoms: _25  and  _26
REMARK   14  A    between atoms: _29  and  _31
REMARK   15  A    between atoms: _31  and  _32
REMARK   16  A    between atoms: _31  and  _34
REMARK   17  A    between atoms: _34  and  _35
REMARK   18  A    between atoms: _40  and  _42
REMARK   19  A    between atoms: _42  and  _43
REMARK   20  A    between atoms: _46  and  _48
REMARK   21  A    between atoms: _48  and  _49
REMARK   22  A    between atoms: _48  and  _51
REMARK   23  A    between atoms: _51  and  _52
REMARK   24  A    between atoms: _55  and  _57
REMARK   25  A    between atoms: _57  and  _58
REMARK   26  A    between atoms: _57  and  _60
REMARK   27  A    between atoms: _63  and  _65
REMARK   28  A    between atoms: _65  and  _66
REMARK   29  A    between atoms: _65  and  _68
REMARK   30  A    between atoms: _68  and  _69
REMARK   31  A    between atoms: _69  and  _70
REMARK   32  A    between atoms: _70  and  _71
REMARK   33  A    between atoms: _80  and  _82
REMARK   34  A    between atoms: _82  and  _83
REMARK   35  A    between atoms: _82  and  _85
REMARK   36  A    between atoms: _85  and  _86
REMARK   37  A    between atoms: _89  and  _91
REMARK   38  A    between atoms: _91  and  _92
REMARK   39  A    between atoms: _91  and  _94
REMARK   40  A    between atoms: _94  and  _95
REMARK   41  A    between atoms: _98  and  _100
REMARK   42  A    between atoms: _100  and  _101
REMARK   43  A    between atoms: _100  and  _103
REMARK   44  A    between atoms: _103  and  _104
REMARK   45  A    between atoms: _104  and  _105
REMARK   46  A    between atoms: _110  and  _112
REMARK   47  A    between atoms: _112  and  _113
REMARK   48  A    between atoms: _112  and  _115
REMARK   49  A    between atoms: _118  and  _120
REMARK   50  A    between atoms: _120  and  _121
REMARK   51  A    between atoms: _120  and  _123
REMARK   52  A    between atoms: _123  and  _124
REMARK   53  A    between atoms: _127  and  _129
REMARK   54  A    between atoms: _129  and  _130
REMARK   55  A    between atoms: _129  and  _132
REMARK   56  A    between atoms: _132  and  _133
REMARK   57  A    between atoms: _133  and  _134
REMARK   58  A    between atoms: _137  and  _139
REMARK   59  A    between atoms: _139  and  _140
REMARK   60  A    between atoms: _139  and  _142
REMARK   61  A    between atoms: _142  and  _143
REMARK   62  A    between atoms: _146  and  _148
REMARK   63  A    between atoms: _148  and  _149
REMARK   64  A    between atoms: _148  and  _151
REMARK   65  A    between atoms: _151  and  _152
REMARK   66  A    between atoms: _155  and  _157
REMARK   67  A    between atoms: _157  and  _158
REMARK   68  A    between atoms: _157  and  _160
REMARK   69  A    between atoms: _160  and  _161
REMARK   70  A    between atoms: _166  and  _168
REMARK   71  A    between atoms: _168  and  _169
REMARK   72  A    between atoms: _172  and  _174
REMARK   73  A    between atoms: _174  and  _175
REMARK   74  A    between atoms: _174  and  _177
REMARK   75  A    between atoms: _177  and  _178
REMARK   76  A    between atoms: _181  and  _183
REMARK   77  A    between atoms: _183  and  _184
REMARK   78  A    between atoms: _183  and  _186
REMARK   79  A    between atoms: _189  and  _191
REMARK   80  A    between atoms: _191  and  _192
REMARK   81  A    between atoms: _191  and  _194
REMARK   82  A    between atoms: _194  and  _195
REMARK   83  A    between atoms: _195  and  _196
REMARK   84  A    between atoms: _196  and  _197
REMARK   85  A    between atoms: _206  and  _208
REMARK   86  A    between atoms: _208  and  _209
REMARK   87  A    between atoms: _208  and  _211
REMARK   88  A    between atoms: _211  and  _212
REMARK   89  A    between atoms: _215  and  _217
REMARK   90  A    between atoms: _217  and  _218
REMARK   91  A    between atoms: _217  and  _220
REMARK   92  A    between atoms: _220  and  _221
REMARK   93  A    between atoms: _224  and  _226
REMARK   94  A    between atoms: _226  and  _227
REMARK   95  A    between atoms: _226  and  _229
REMARK   96  A    between atoms: _229  and  _230
REMARK   97  A    between atoms: _230  and  _231
REMARK   98  A    between atoms: _236  and  _238
REMARK   99  A    between atoms: _238  and  _239
REMARK  100  A    between atoms: _238  and  _241
REMARK  101  A    between atoms: _244  and  _246
REMARK  102  A    between atoms: _246  and  _247
REMARK  103  A    between atoms: _246  and  _249
REMARK  104  A    between atoms: _249  and  _250
REMARK  105  A    between atoms: _253  and  _255
REMARK  106  A    between atoms: _255  and  _256
REMARK  107  A    between atoms: _255  and  _258
REMARK  108  A    between atoms: _258  and  _259
REMARK  109  A    between atoms: _259  and  _260
REMARK  110  A    between atoms: _263  and  _265
REMARK  111  A    between atoms: _265  and  _266
REMARK  112  A    between atoms: _265  and  _268
REMARK  113  A    between atoms: _268  and  _269
REMARK  114  A    between atoms: _272  and  _274
REMARK  115  A    between atoms: _274  and  _275
REMARK  116  A    between atoms: _274  and  _277
REMARK  117  A    between atoms: _277  and  _278
REMARK  118  A    between atoms: _281  and  _283
REMARK  119  A    between atoms: _283  and  _284
REMARK  120  A    between atoms: _283  and  _286
REMARK  121  A    between atoms: _286  and  _287
REMARK  122  A    between atoms: _292  and  _294
REMARK  123  A    between atoms: _294  and  _295
REMARK  124  A    between atoms: _298  and  _300
REMARK  125  A    between atoms: _300  and  _301
REMARK  126  A    between atoms: _300  and  _303
REMARK  127  A    between atoms: _303  and  _304
REMARK  128  A    between atoms: _307  and  _309
REMARK  129  A    between atoms: _309  and  _310
REMARK  130  A    between atoms: _309  and  _312
REMARK  131  A    between atoms: _315  and  _317
REMARK  132  A    between atoms: _317  and  _318
REMARK  133  A    between atoms: _317  and  _320
REMARK  134  A    between atoms: _320  and  _321
REMARK  135  A    between atoms: _321  and  _322
REMARK  136  A    between atoms: _322  and  _323
REMARK  137  A    between atoms: _332  and  _334
REMARK  138  A    between atoms: _334  and  _335
REMARK  139  A    between atoms: _334  and  _337
REMARK  140  A    between atoms: _337  and  _338
REMARK  141  A    between atoms: _341  and  _343
REMARK  142  A    between atoms: _343  and  _344
REMARK  143  A    between atoms: _343  and  _346
REMARK  144  A    between atoms: _346  and  _347
REMARK  145  A    between atoms: _350  and  _352
REMARK  146  A    between atoms: _352  and  _353
REMARK  147  A    between atoms: _352  and  _355
REMARK  148  A    between atoms: _355  and  _356
REMARK  149  A    between atoms: _356  and  _357
REMARK  150  A    between atoms: _357  and  _358
REMARK  151  A    between atoms: _367  and  _369
REMARK  152  A    between atoms: _369  and  _370
REMARK  153  A    between atoms: _369  and  _372
REMARK  154  A    between atoms: _372  and  _373
REMARK  155  A    between atoms: _373  and  _374
REMARK  156  A    between atoms: _379  and  _381
REMARK  157  A    between atoms: _381  and  _382
REMARK  158  A    between atoms: _381  and  _384
REMARK  159  A    between atoms: _387  and  _389
REMARK  160  A    between atoms: _389  and  _390
REMARK  161  A    between atoms: _389  and  _392
REMARK  162  A    between atoms: _392  and  _393
REMARK  163  A    between atoms: _396  and  _398
REMARK  164  A    between atoms: _398  and  _399
REMARK  165  A    between atoms: _398  and  _401
REMARK  166  A    between atoms: _401  and  _402
REMARK  167  A    between atoms: _402  and  _403
REMARK  168  A    between atoms: _406  and  _408
REMARK  169  A    between atoms: _408  and  _409
REMARK  170  A    between atoms: _408  and  _411
REMARK  171  A    between atoms: _411  and  _412
REMARK  172  A    between atoms: _415  and  _417
REMARK  173  A    between atoms: _417  and  _418
REMARK  174  A    between atoms: _417  and  _420
REMARK  175  A    between atoms: _420  and  _421
REMARK  176  A    between atoms: _424  and  _426
REMARK  177  A    between atoms: _426  and  _427
REMARK  178  A    between atoms: _426  and  _429
REMARK  179  A    between atoms: _429  and  _430
REMARK  180  A    between atoms: _435  and  _437
REMARK  181  A    between atoms: _437  and  _438
REMARK  182  A    between atoms: _441  and  _443
REMARK  183  A    between atoms: _443  and  _444
REMARK  184  A    between atoms: _443  and  _446
REMARK  185  A    between atoms: _446  and  _447
REMARK  186  A    between atoms: _450  and  _452
REMARK  187  A    between atoms: _452  and  _453
REMARK  188  A    between atoms: _452  and  _455
REMARK  189  A    between atoms: _458  and  _460
REMARK  190  A    between atoms: _460  and  _461
REMARK  191  A    between atoms: _460  and  _463
REMARK  192  A    between atoms: _463  and  _464
REMARK  193  A    between atoms: _464  and  _465
REMARK  194  A    between atoms: _465  and  _466
REMARK  195  A    between atoms: _475  and  _477
REMARK  196  A    between atoms: _477  and  _478
REMARK  197  A    between atoms: _477  and  _480
REMARK  198  A    between atoms: _480  and  _481
REMARK  199  A    between atoms: _484  and  _486
REMARK  200  A    between atoms: _486  and  _487
REMARK  201  A    between atoms: _486  and  _489
REMARK  202  A    between atoms: _489  and  _490
REMARK  203  A    between atoms: _493  and  _495
REMARK  204  A    between atoms: _495  and  _496
REMARK  205  A    between atoms: _495  and  _498
REMARK  206  A    between atoms: _498  and  _499
REMARK  207  A    between atoms: _499  and  _500
REMARK  208  A    between atoms: _505  and  _507
REMARK  209  A    between atoms: _507  and  _508
REMARK  210  A    between atoms: _507  and  _510
REMARK  211  A    between atoms: _513  and  _515
REMARK  212  A    between atoms: _515  and  _516
REMARK  213  A    between atoms: _515  and  _518
REMARK  214  A    between atoms: _518  and  _519
REMARK  215  A    between atoms: _522  and  _524
REMARK  216  A    between atoms: _524  and  _525
REMARK  217  A    between atoms: _524  and  _527
REMARK  218  A    between atoms: _527  and  _528
REMARK  219  A    between atoms: _528  and  _529
REMARK  220  A    between atoms: _532  and  _534
REMARK  221  A    between atoms: _534  and  _535
REMARK  222  A    between atoms: _534  and  _537
REMARK  223  A    between atoms: _537  and  _538
REMARK  224  A    between atoms: _541  and  _543
REMARK  225  A    between atoms: _543  and  _544
REMARK  226  A    between atoms: _543  and  _546
REMARK  227  A    between atoms: _546  and  _547
REMARK  228  A    between atoms: _550  and  _552
REMARK  229  A    between atoms: _552  and  _553
REMARK  230  A    between atoms: _552  and  _555
REMARK  231  A    between atoms: _555  and  _556
REMARK  232  A    between atoms: _561  and  _563
REMARK  233  A    between atoms: _563  and  _564
REMARK  234  A    between atoms: _567  and  _569
REMARK  235  A    between atoms: _569  and  _570
REMARK  236  A    between atoms: _569  and  _572
REMARK  237  A    between atoms: _572  and  _573
REMARK  238  A    between atoms: _576  and  _578
REMARK  239  A    between atoms: _578  and  _579
REMARK  240  A    between atoms: _578  and  _581
REMARK  241  A    between atoms: _584  and  _586
REMARK  242  A    between atoms: _586  and  _587
REMARK  243  A    between atoms: _586  and  _589
REMARK  244  A    between atoms: _589  and  _590
REMARK  245  A    between atoms: _590  and  _591
REMARK  246  A    between atoms: _591  and  _592
REMARK  247  A    between atoms: _601  and  _603
REMARK  248  A    between atoms: _603  and  _604
REMARK  249  A    between atoms: _603  and  _606
REMARK  250  A    between atoms: _606  and  _607
REMARK  251  A    between atoms: _610  and  _612
REMARK  252  A    between atoms: _612  and  _613
REMARK  253  A    between atoms: _612  and  _615
REMARK  254  A    between atoms: _615  and  _616
REMARK  255  A    between atoms: _619  and  _621
REMARK  256  A    between atoms: _621  and  _622
REMARK  257  A    between atoms: _621  and  _624
REMARK  258  A    between atoms: _624  and  _625
REMARK  259  A    between atoms: _625  and  _626
REMARK  260  A    between atoms: _631  and  _633
REMARK  261  A    between atoms: _633  and  _634
REMARK  262  A    between atoms: _633  and  _636
REMARK  263  A    between atoms: _639  and  _641
REMARK  264  A    between atoms: _641  and  _642
REMARK  265  A    between atoms: _641  and  _644
REMARK  266  A    between atoms: _644  and  _645
REMARK                            x       y       z     vdW  Elec       q    Type
REMARK                         _______ _______ _______ _____ _____    ______ ____
ROOT
ATOM      1  C   ALA A   1       1.825  -0.679  -2.103  0.00  0.00    +0.238 C 
ATOM      2  O   ALA A   1       0.977  -0.713  -1.213  0.00  0.00    -0.274 OA
ATOM      3  N   LEU A   2       2.749   0.276  -2.173  0.00  0.00    -0.298 N 
ATOM      4  H   LEU A   2       3.457   0.252  -2.935  0.00  0.00    +0.150 HD
ENDROOT
BRANCH   1   5
ATOM      5  CA  ALA A   1       1.848  -1.747  -3.192  0.00  0.00    +0.145 C 
ATOM      6  CB  ALA A   1       2.953  -2.761  -2.929  0.00  0.00    +0.028 C 
BRANCH   5   7
ATOM      7  N   ALA A   1       2.047  -1.112  -4.489  0.00  0.00    -0.238 NA
ATOM      8  H   ALA A   1       2.876  -1.375  -5.059  0.00  0.00    +0.142 HD
ENDBRANCH   5   7
ENDBRANCH   1   5
BRANCH   3   9
ATOM      9  CA  LEU A   2       2.781   1.362  -1.189  0.00  0.00    +0.137 C 
BRANCH   9  10
ATOM     10  C   LEU A   2       1.473   2.147  -1.216  0.00  0.00    +0.227 C 
ATOM     11  O   LEU A   2       0.938   2.536  -0.181  0.00  0.00    -0.286 OA
ENDBRANCH   9  10
BRANCH   9  12
ATOM     12  CB  LEU A   2       3.921   2.332  -1.490  0.00  0.00    +0.028 C 
BRANCH  12  13
ATOM     13  CG  LEU A   2       5.157   2.247  -0.607  0.00  0.00    +0.002 C 
ATOM     14  CD2 LEU A   2       4.740   2.331   0.863  0.00  0.00    +0.000 C 
ATOM     15  CD1 LEU A   2       5.870   0.945  -0.884  0.00  0.00    +0.000 C 
ENDBRANCH  12  13
ENDBRANCH   9  12
ENDBRANCH   3   9
TORSDOF 6
REMARK  Name = ../refined-set-2016/3v2q/3v2q_pocket.pdb
REMARK  266 active torsions:
REMARK  status: ('A' for Active; 'I' for Inactive)
REMARK    1  A    between atoms: _1  and  _3
REMARK    2  A    between atoms: _3  and  _4
REMARK    3  A    between atoms: _3  and  _6
REMARK    4  A    between atoms: _6  and  _7
REMARK    5  A    between atoms: _7  and  _8
REMARK    6  A    between atoms: _11  and  _13
REMARK    7  A    between atoms: _13  and  _14
REMARK    8  A    between atoms: _13  and  _16
REMARK    9  A    between atoms: _16  and  _17
REMARK   10  A    between atoms: _20  and  _22
REMARK   11  A    between atoms: _22  and  _23
REMARK   12  A    between atoms: _22  and  _25
REMARK   13  A    between atoms: _25  and  _26
REMARK   14  A    between atoms: _29  and  _31
REMARK   15  A    between atoms: _31  and  _32
REMARK   16  A    between atoms: _31  and  _34
REMARK   17  A    between atoms: _34  and  _35
REMARK   18  A    between atoms: _40  and  _42
REMARK   19  A    between atoms: _42  and  _43
REMARK   20  A    between atoms: _46  and  _48
REMARK   21  A    between atoms: _48  and  _49
REMARK   22  A    between atoms: _48  and  _51
REMARK   23  A    between atoms: _51  and  _52
REMARK   24  A    between atoms: _55  and  _57
REMARK   25  A    between atoms: _57  and  _58
REMARK   26  A    between atoms: _57  and  _60
REMARK   27  A    between atoms: _63  and  _65
REMARK   28  A    between atoms: _65  and  _66
REMARK   29  A    between atoms: _65  and  _68
REMARK   30  A    between atoms: _68  and  _69
REMARK   31  A    between atoms: _69  and  _70
REMARK   32  A    between atoms: _70  and  _71
REMARK   33  A    between atoms: _80  and  _82
REMARK   34  A    between atoms: _82  and  _83
REMARK   35  A    between atoms: _82  and  _85
REMARK   36  A    between atoms: _85  and  _86
REMARK   37  A    between atoms: _89  and  _91
REMARK   38  A    between atoms: _91  and  _92
REMARK   39  A    between atoms: _91  and  _94
REMARK   40  A    between atoms: _94  and  _95
REMARK   41  A    between atoms: _98  and  _100
REMARK   42  A    between atoms: _100  and  _101
REMARK   43  A    between atoms: _100  and  _103
REMARK   44  A    between atoms: _103  and  _104
REMARK   45  A    between atoms: _104  and  _105
REMARK   46  A    between atoms: _110  and  _112
REMARK   47  A    between atoms: _112  and  _113
REMARK   48  A    between atoms: _112  and  _115
REMARK   49  A    between atoms: _118  and  _120
REMARK   50  A    between atoms: _120  and  _121
REMARK   51  A    between atoms: _120  and  _123
REMARK   52  A    between atoms: _123  and  _124
REMARK   53  A    between atoms: _127  and  _129
REMARK   54  A    between atoms: _129  and  _130
REMARK   55  A    between atoms: _129  and  _132
REMARK   56  A    between atoms: _132  and  _133
REMARK   57  A    between atoms: _133  and  _134
REMARK   58  A    between atoms: _137  and  _139
REMARK   59  A    between atoms: _139  and  _140
REMARK   60  A    between atoms: _139  and  _142
REMARK   61  A    between atoms: _142  and  _143
REMARK   62  A    between atoms: _146  and  _148
REMARK   63  A    between atoms: _148  and  _149
REMARK   64  A    between atoms: _148  and  _151
REMARK   65  A    between atoms: _151  and  _152
REMARK   66  A    between atoms: _155  and  _157
REMARK   67  A    between atoms: _157  and  _158
REMARK   68  A    between atoms: _157  and  _160
REMARK   69  A    between atoms: _160  and  _161
REMARK   70  A    between atoms: _166  and  _168
REMARK   71  A    between atoms: _168  and  _169
REMARK   72  A    between atoms: _172  and  _174
REMARK   73  A    between atoms: _174  and  _175
REMARK   74  A    between atoms: _174  and  _177
REMARK   75  A    between atoms: _177  and  _178
REMARK   76  A    between atoms: _181  and  _183
REMARK   77  A    between atoms: _183  and  _184
REMARK   78  A    between atoms: _183  and  _186
REMARK   79  A    between atoms: _189  and  _191
REMARK   80  A    between atoms: _191  and  _192
REMARK   81  A    between atoms: _191  and  _194
REMARK   82  A    between atoms: _194  and  _195
REMARK   83  A    between atoms: _195  and  _196
REMARK   84  A    between atoms: _196  and  _197
REMARK   85  A    between atoms: _206  and  _208
REMARK   86  A    between atoms: _208  and  _209
REMARK   87  A    between atoms: _208  and  _211
REMARK   88  A    between atoms: _211  and  _212
REMARK   89  A    between atoms: _215  and  _217
REMARK   90  A    between atoms: _217  and  _218
REMARK   91  A    between atoms: _217  and  _220
REMARK   92  A    between atoms: _220  and  _221
REMARK   93  A    between atoms: _224  and  _226
REMARK   94  A    between atoms: _226  and  _227
REMARK   95  A    between atoms: _226  and  _229
REMARK   96  A    between atoms: _229  and  _230
REMARK   97  A    between atoms: _230  and  _231
REMARK   98  A    between atoms: _236  and  _238
REMARK   99  A    between atoms: _238  and  _239
REMARK  100  A    between atoms: _238  and  _241
REMARK  101  A    between atoms: _244  and  _246
REMARK  102  A    between atoms: _246  and  _247
REMARK  103  A    between atoms: _246  and  _249
REMARK  104  A    between atoms: _249  and  _250
REMARK  105  A    between atoms: _253  and  _255
REMARK  106  A    between atoms: _255  and  _256
REMARK  107  A    between atoms: _255  and  _258
REMARK  108  A    between atoms: _258  and  _259
REMARK  109  A    between atoms: _259  and  _260
REMARK  110  A    between atoms: _263  and  _265
REMARK  111  A    between atoms: _265  and  _266
REMARK  112  A    between atoms: _265  and  _268
REMARK  113  A    between atoms: _268  and  _269
REMARK  114  A    between atoms: _272  and  _274
REMARK  115  A    between atoms: _274  and  _275
REMARK  116  A    between atoms: _274  and  _277
REMARK  117  A    between atoms: _277  and  _278
REMARK  118  A    between atoms: _281  and  _283
REMARK  119  A    between atoms: _283  and  _284
REMARK  120  A    between atoms: _283  and  _286
REMARK  121  A    between atoms: _286  and  _287
REMARK  122  A    between atoms: _292  and  _294
REMARK  123  A    between atoms: _294  and  _295
REMARK  124  A    between atoms: _298  and  _300
REMARK  125  A    between atoms: _300  and  _301
REMARK  126  A    between atoms: _300  and  _303
REMARK  127  A    between atoms: _303  and  _304
REMARK  128  A    between atoms: _307  and  _309
REMARK  129  A    between atoms: _309  and  _310
REMARK  130  A    between atoms: _309  and  _312
REMARK  131  A    between atoms: _315  and  _317
REMARK  132  A    between atoms: _317  and  _318
REMARK  133  A    between atoms: _317  and  _320
REMARK  134  A    between atoms: _320  and  _321
REMARK  135  A    between atoms: _321  and  _322
REMARK  136  A    between atoms: _322  and  _323
REMARK  137  A    between atoms: _332  and  _334
REMARK  138  A    between atoms: _334  and  _335
REMARK  139  A    between atoms: _334  and  _337
REMARK  140  A    between atoms: _337  and  _338
REMARK  141  A    between atoms: _341  and  _343
REMARK  142  A    between atoms: _343  and  _344
REMARK  143  A    between atoms: _343  and  _346
REMARK  144  A    between atoms: _346  and  _347
REMARK  145  A    between atoms: _350  and  _352
REMARK  146  A    between atoms: _352  and  _353
REMARK  147  A    between atoms: _352  and  _355
REMARK  148  A    between atoms: _355  and  _356
REMARK  149  A    between atoms: _356  and  _357
REMARK  150  A    between atoms: _357  and  _358
REMARK  151  A    between atoms: _367  and  _369
REMARK  152  A    between atoms: _369  and  _370
REMARK  153  A    between atoms: _369  and  _372
REMARK  154  A    between atoms: _372  and  _373
REMARK  155  A    between atoms: _373  and  _374
REMARK  156  A    between atoms: _379  and  _381
REMARK  157  A    between atoms: _381  and  _382
REMARK  158  A    between atoms: _381  and  _384
REMARK  159  A    between atoms: _387  and  _389
REMARK  160  A    between atoms: _389  and  _390
REMARK  161  A    between atoms: _389  and  _392
REMARK  162  A    between atoms: _392  and  _393
REMARK  163  A    between atoms: _396  and  _398
REMARK  164  A    between atoms: _398  and  _399
REMARK  165  A    between atoms: _398  and  _401
REMARK  166  A    between atoms: _401  and  _402
REMARK  167  A    between atoms: _402  and  _403
REMARK  168  A    between atoms: _406  and  _408
REMARK  169  A    between atoms: _408  and  _409
REMARK  170  A    between atoms: _408  and  _411
REMARK  171  A    between atoms: _411  and  _412
REMARK  172  A    between atoms: _415  and  _417
REMARK  173  A    between atoms: _417  and  _418
REMARK  174  A    between atoms: _417  and  _420
REMARK  175  A    between atoms: _420  and  _421
REMARK  176  A    between atoms: _424  and  _426
REMARK  177  A    between atoms: _426  and  _427
REMARK  178  A    between atoms: _426  and  _429
REMARK  179  A    between atoms: _429  and  _430
REMARK  180  A    between atoms: _435  and  _437
REMARK  181  A    between atoms: _437  and  _438
REMARK  182  A    between atoms: _441  and  _443
REMARK  183  A    between atoms: _443  and  _444
REMARK  184  A    between atoms: _443  and  _446
REMARK  185  A    between atoms: _446  and  _447
REMARK  186  A    between atoms: _450  and  _452
REMARK  187  A    between atoms: _452  and  _453
REMARK  188  A    between atoms: _452  and  _455
REMARK  189  A    between atoms: _458  and  _460
REMARK  190  A    between atoms: _460  and  _461
REMARK  191  A    between atoms: _460  and  _463
REMARK  192  A    between atoms: _463  and  _464
REMARK  193  A    between atoms: _464  and  _465
REMARK  194  A    between atoms: _465  and  _466
REMARK  195  A    between atoms: _475  and  _477
REMARK  196  A    between atoms: _477  and  _478
REMARK  197  A    between atoms: _477  and  _480
REMARK  198  A    between atoms: _480  and  _481
REMARK  199  A    between atoms: _484  and  _486
REMARK  200  A    between atoms: _486  and  _487
REMARK  201  A    between atoms: _486  and  _489
REMARK  202  A    between atoms: _489  and  _490
REMARK  203  A    between atoms: _493  and  _495
REMARK  204  A    between atoms: _495  and  _496
REMARK  205  A    between atoms: _495  and  _498
REMARK  206  A    between atoms: _498  and  _499
REMARK  207  A    between atoms: _499  and  _500
REMARK  208  A    between atoms: _505  and  _507
REMARK  209  A    between atoms: _507  and  _508
REMARK  210  A    between atoms: _507  and  _510
REMARK  211  A    between atoms: _513  and  _515
REMARK  212  A    between atoms: _515  and  _516
REMARK  213  A    between atoms: _515  and  _518
REMARK  214  A    between atoms: _518  and  _519
REMARK  215  A    between atoms: _522  and  _524
REMARK  216  A    between atoms: _524  and  _525
REMARK  217  A    between atoms: _524  and  _527
REMARK  218  A    between atoms: _527  and  _528
REMARK  219  A    between atoms: _528  and  _529
REMARK  220  A    between atoms: _532  and  _534
REMARK  221  A    between atoms: _534  and  _535
REMARK  222  A    between atoms: _534  and  _537
REMARK  223  A    between atoms: _537  and  _538
REMARK  224  A    between atoms: _541  and  _543
REMARK  225  A    between atoms: _543  and  _544
REMARK  226  A    between atoms: _543  and  _546
REMARK  227  A    between atoms: _546  and  _547
REMARK  228  A    between atoms: _550  and  _552
REMARK  229  A    between atoms: _552  and  _553
REMARK  230  A    between atoms: _552  and  _555
REMARK  231  A    between atoms: _555  and  _556
REMARK  232  A    between atoms: _561  and  _563
REMARK  233  A    between atoms: _563  and  _564
REMARK  234  A    between atoms: _567  and  _569
REMARK  235  A    between atoms: _569  and  _570
REMARK  236  A    between atoms: _569  and  _572
REMARK  237  A    between atoms: _572  and  _573
REMARK  238  A    between atoms: _576  and  _578
REMARK  239  A    between atoms: _578  and  _579
REMARK  240  A    between atoms: _578  and  _581
REMARK  241  A    between atoms: _584  and  _586
REMARK  242  A    between atoms: _586  and  _587
REMARK  243  A    between atoms: _586  and  _589
REMARK  244  A    between atoms: _589  and  _590
REMARK  245  A    between atoms: _590  and  _591
REMARK  246  A    between atoms: _591  and  _592
REMARK  247  A    between atoms: _601  and  _603
REMARK  248  A    between atoms: _603  and  _604
REMARK  249  A    between atoms: _603  and  _606
REMARK  250  A    between atoms: _606  and  _607
REMARK  251  A    between atoms: _610  and  _612
REMARK  252  A    between atoms: _612  and  _613
REMARK  253  A    between atoms: _612  and  _615
REMARK  254  A    between atoms: _615  and  _616
REMARK  255  A    between atoms: _619  and  _621
REMARK  256  A    between atoms: _621  and  _622
REMARK  257  A    between atoms: _621  and  _624
REMARK  258  A    between atoms: _624  and  _625
REMARK  259  A    between atoms: _625  and  _626
REMARK  260  A    between atoms: _631  and  _633
REMARK  261  A    between atoms: _633  and  _634
REMARK  262  A    between atoms: _633  and  _636
REMARK  263  A    between atoms: _639  and  _641
REMARK  264  A    between atoms: _641  and  _642
REMARK  265  A    between atoms: _641  and  _644
REMARK  266  A    between atoms: _644  and  _645
REMARK                            x       y       z     vdW  Elec       q    Type
REMARK                         _______ _______ _______ _____ _____    ______ ____
ROOT
ATOM      1  CA  ARG A   2      -1.203   4.015   2.508  0.00  0.00    +0.137 C 
ENDROOT
BRANCH   1   4
ATOM      2  C   VAL A   1      -1.167   1.601   2.783  0.00  0.00    +0.238 C 
ATOM      3  O   VAL A   1      -1.812   1.643   3.833  0.00  0.00    -0.274 OA
ATOM      4  N   ARG A   2      -0.835   2.676   2.094  0.00  0.00    -0.298 N 
ATOM      5  H   ARG A   2      -0.287   2.558   1.218  0.00  0.00    +0.150 HD
BRANCH   2   6
ATOM      6  CA  VAL A   1      -0.714   0.291   2.171  0.00  0.00    +0.145 C 
BRANCH   6   7
ATOM      7  CB  VAL A   1       0.809   0.082   2.392  0.00  0.00    +0.025 C 
ATOM      8  CG2 VAL A   1       1.206   0.488   3.803  0.00  0.00    +0.002 C 
ATOM      9  CG1 VAL A   1       1.157  -1.389   2.186  0.00  0.00    +0.002 C 
ENDBRANCH   6   7
BRANCH   6  10
ATOM     10  N   VAL A   1      -1.039   0.300   0.745  0.00  0.00    -0.238 NA
ATOM     11  H   VAL A   1      -0.273   0.205   0.049  0.00  0.00    +0.142 HD
ENDBRANCH   6  10
ENDBRANCH   2   6
ENDBRANCH   1   4
BRANCH   1  12
ATOM     12  C   ARG A   2      -2.731   4.132   2.610  0.00  0.00    +0.227 C 
ATOM     13  O   ARG A   2      -3.251   4.642   3.597  0.00  0.00    -0.286 OA
ENDBRANCH   1  12
BRANCH   1  14
ATOM     14  CB  ARG A   2      -0.644   4.987   1.476  0.00  0.00    +0.031 C 
BRANCH  14  15
ATOM     15  CG  ARG A   2      -1.013   6.437   1.642  0.00  0.00    +0.045 C 
BRANCH  15  16
ATOM     16  CD  ARG A   2      -0.482   7.170   0.431  0.00  0.00    +0.174 C 
BRANCH  16  17
ATOM     17  NE  ARG A   2      -0.131   8.545   0.738  0.00  0.00    -0.265 N 
ATOM     18  HE  ARG A   2      -0.494   8.959   1.621  0.00  0.00    +0.259 HD
ATOM     19  CZ  ARG A   2       0.626   9.303  -0.044  0.00  0.00    +0.342 C 
ATOM     20  NH2 ARG A   2       0.902  10.547   0.312  0.00  0.00    -0.292 N 
ATOM     21 HH21 ARG A   2       0.526  10.928   1.203  0.00  0.00    +0.255 HD
ATOM     22 HH22 ARG A   2       1.495  11.143  -0.299  0.00  0.00    +0.255 HD
ATOM     23  NH1 ARG A   2       1.109   8.813  -1.175  0.00  0.00    -0.292 N 
ATOM     24 HH11 ARG A   2       0.895   7.833  -1.451  0.00  0.00    +0.255 HD
ATOM     25 HH12 ARG A   2       1.703   9.408  -1.788  0.00  0.00    +0.255 HD
ENDBRANCH  16  17
ENDBRANCH  15  16
ENDBRANCH  14  15
ENDBRANCH   1  14
TORSDOF 9
REMARK  Name = ../refined-set-2016/3v2q/3v2q_pocket.pdb
REMARK  266 active torsions:
REMARK  status: ('A' for Active; 'I' for Inactive)
REMARK    1  A    between atoms: _1  and  _3
REMARK    2  A    between atoms: _3  and  _4
REMARK    3  A    between atoms: _3  and  _6
REMARK    4  A    between atoms: _6  and  _7
REMARK    5  A    between atoms: _7  and  _8
REMARK    6  A    between atoms: _11  and  _13
REMARK    7  A    between atoms: _13  and  _14
REMARK    8  A    between atoms: _13  and  _16
REMARK    9  A    between atoms: _16  and  _17
REMARK   10  A    between atoms: _20  and  _22
REMARK   11  A    between atoms: _22  and  _23
REMARK   12  A    between atoms: _22  and  _25
REMARK   13  A    between atoms: _25  and  _26
REMARK   14  A    between atoms: _29  and  _31
REMARK   15  A    between atoms: _31  and  _32
REMARK   16  A    between atoms: _31  and  _34
REMARK   17  A    between atoms: _34  and  _35
REMARK   18  A    between atoms: _40  and  _42
REMARK   19  A    between atoms: _42  and  _43
REMARK   20  A    between atoms: _46  and  _48
REMARK   21  A    between atoms: _48  and  _49
REMARK   22  A    between atoms: _48  and  _51
REMARK   23  A    between atoms: _51  and  _52
REMARK   24  A    between atoms: _55  and  _57
REMARK   25  A    between atoms: _57  and  _58
REMARK   26  A    between atoms: _57  and  _60
REMARK   27  A    between atoms: _63  and  _65
REMARK   28  A    between atoms: _65  and  _66
REMARK   29  A    between atoms: _65  and  _68
REMARK   30  A    between atoms: _68  and  _69
REMARK   31  A    between atoms: _69  and  _70
REMARK   32  A    between atoms: _70  and  _71
REMARK   33  A    between atoms: _80  and  _82
REMARK   34  A    between atoms: _82  and  _83
REMARK   35  A    between atoms: _82  and  _85
REMARK   36  A    between atoms: _85  and  _86
REMARK   37  A    between atoms: _89  and  _91
REMARK   38  A    between atoms: _91  and  _92
REMARK   39  A    between atoms: _91  and  _94
REMARK   40  A    between atoms: _94  and  _95
REMARK   41  A    between atoms: _98  and  _100
REMARK   42  A    between atoms: _100  and  _101
REMARK   43  A    between atoms: _100  and  _103
REMARK   44  A    between atoms: _103  and  _104
REMARK   45  A    between atoms: _104  and  _105
REMARK   46  A    between atoms: _110  and  _112
REMARK   47  A    between atoms: _112  and  _113
REMARK   48  A    between atoms: _112  and  _115
REMARK   49  A    between atoms: _118  and  _120
REMARK   50  A    between atoms: _120  and  _121
REMARK   51  A    between atoms: _120  and  _123
REMARK   52  A    between atoms: _123  and  _124
REMARK   53  A    between atoms: _127  and  _129
REMARK   54  A    between atoms: _129  and  _130
REMARK   55  A    between atoms: _129  and  _132
REMARK   56  A    between atoms: _132  and  _133
REMARK   57  A    between atoms: _133  and  _134
REMARK   58  A    between atoms: _137  and  _139
REMARK   59  A    between atoms: _139  and  _140
REMARK   60  A    between atoms: _139  and  _142
REMARK   61  A    between atoms: _142  and  _143
REMARK   62  A    between atoms: _146  and  _148
REMARK   63  A    between atoms: _148  and  _149
REMARK   64  A    between atoms: _148  and  _151
REMARK   65  A    between atoms: _151  and  _152
REMARK   66  A    between atoms: _155  and  _157
REMARK   67  A    between atoms: _157  and  _158
REMARK   68  A    between atoms: _157  and  _160
REMARK   69  A    between atoms: _160  and  _161
REMARK   70  A    between atoms: _166  and  _168
REMARK   71  A    between atoms: _168  and  _169
REMARK   72  A    between atoms: _172  and  _174
REMARK   73  A    between atoms: _174  and  _175
REMARK   74  A    between atoms: _174  and  _177
REMARK   75  A    between atoms: _177  and  _178
REMARK   76  A    between atoms: _181  and  _183
REMARK   77  A    between atoms: _183  and  _184
REMARK   78  A    between atoms: _183  and  _186
REMARK   79  A    between atoms: _189  and  _191
REMARK   80  A    between atoms: _191  and  _192
REMARK   81  A    between atoms: _191  and  _194
REMARK   82  A    between atoms: _194  and  _195
REMARK   83  A    between atoms: _195  and  _196
REMARK   84  A    between atoms: _196  and  _197
REMARK   85  A    between atoms: _206  and  _208
REMARK   86  A    between atoms: _208  and  _209
REMARK   87  A    between atoms: _208  and  _211
REMARK   88  A    between atoms: _211  and  _212
REMARK   89  A    between atoms: _215  and  _217
REMARK   90  A    between atoms: _217  and  _218
REMARK   91  A    between atoms: _217  and  _220
REMARK   92  A    between atoms: _220  and  _221
REMARK   93  A    between atoms: _224  and  _226
REMARK   94  A    between atoms: _226  and  _227
REMARK   95  A    between atoms: _226  and  _229
REMARK   96  A    between atoms: _229  and  _230
REMARK   97  A    between atoms: _230  and  _231
REMARK   98  A    between atoms: _236  and  _238
REMARK   99  A    between atoms: _238  and  _239
REMARK  100  A    between atoms: _238  and  _241
REMARK  101  A    between atoms: _244  and  _246
REMARK  102  A    between atoms: _246  and  _247
REMARK  103  A    between atoms: _246  and  _249
REMARK  104  A    between atoms: _249  and  _250
REMARK  105  A    between atoms: _253  and  _255
REMARK  106  A    between atoms: _255  and  _256
REMARK  107  A    between atoms: _255  and  _258
REMARK  108  A    between atoms: _258  and  _259
REMARK  109  A    between atoms: _259  and  _260
REMARK  110  A    between atoms: _263  and  _265
REMARK  111  A    between atoms: _265  and  _266
REMARK  112  A    between atoms: _265  and  _268
REMARK  113  A    between atoms: _268  and  _269
REMARK  114  A    between atoms: _272  and  _274
REMARK  115  A    between atoms: _274  and  _275
REMARK  116  A    between atoms: _274  and  _277
REMARK  117  A    between atoms: _277  and  _278
REMARK  118  A    between atoms: _281  and  _283
REMARK  119  A    between atoms: _283  and  _284
REMARK  120  A    between atoms: _283  and  _286
REMARK  121  A    between atoms: _286  and  _287
REMARK  122  A    between atoms: _292  and  _294
REMARK  123  A    between atoms: _294  and  _295
REMARK  124  A    between atoms: _298  and  _300
REMARK  125  A    between atoms: _300  and  _301
REMARK  126  A    between atoms: _300  and  _303
REMARK  127  A    between atoms: _303  and  _304
REMARK  128  A    between atoms: _307  and  _309
REMARK  129  A    between atoms: _309  and  _310
REMARK  130  A    between atoms: _309  and  _312
REMARK  131  A    between atoms: _315  and  _317
REMARK  132  A    between atoms: _317  and  _318
REMARK  133  A    between atoms: _317  and  _320
REMARK  134  A    between atoms: _320  and  _321
REMARK  135  A    between atoms: _321  and  _322
REMARK  136  A    between atoms: _322  and  _323
REMARK  137  A    between atoms: _332  and  _334
REMARK  138  A    between atoms: _334  and  _335
REMARK  139  A    between atoms: _334  and  _337
REMARK  140  A    between atoms: _337  and  _338
REMARK  141  A    between atoms: _341  and  _343
REMARK  142  A    between atoms: _343  and  _344
REMARK  143  A    between atoms: _343  and  _346
REMARK  144  A    between atoms: _346  and  _347
REMARK  145  A    between atoms: _350  and  _352
REMARK  146  A    between atoms: _352  and  _353
REMARK  147  A    between atoms: _352  and  _355
REMARK  148  A    between atoms: _355  and  _356
REMARK  149  A    between atoms: _356  and  _357
REMARK  150  A    between atoms: _357  and  _358
REMARK  151  A    between atoms: _367  and  _369
REMARK  152  A    between atoms: _369  and  _370
REMARK  153  A    between atoms: _369  and  _372
REMARK  154  A    between atoms: _372  and  _373
REMARK  155  A    between atoms: _373  and  _374
REMARK  156  A    between atoms: _379  and  _381
REMARK  157  A    between atoms: _381  and  _382
REMARK  158  A    between atoms: _381  and  _384
REMARK  159  A    between atoms: _387  and  _389
REMARK  160  A    between atoms: _389  and  _390
REMARK  161  A    between atoms: _389  and  _392
REMARK  162  A    between atoms: _392  and  _393
REMARK  163  A    between atoms: _396  and  _398
REMARK  164  A    between atoms: _398  and  _399
REMARK  165  A    between atoms: _398  and  _401
REMARK  166  A    between atoms: _401  and  _402
REMARK  167  A    between atoms: _402  and  _403
REMARK  168  A    between atoms: _406  and  _408
REMARK  169  A    between atoms: _408  and  _409
REMARK  170  A    between atoms: _408  and  _411
REMARK  171  A    between atoms: _411  and  _412
REMARK  172  A    between atoms: _415  and  _417
REMARK  173  A    between atoms: _417  and  _418
REMARK  174  A    between atoms: _417  and  _420
REMARK  175  A    between atoms: _420  and  _421
REMARK  176  A    between atoms: _424  and  _426
REMARK  177  A    between atoms: _426  and  _427
REMARK  178  A    between atoms: _426  and  _429
REMARK  179  A    between atoms: _429  and  _430
REMARK  180  A    between atoms: _435  and  _437
REMARK  181  A    between atoms: _437  and  _438
REMARK  182  A    between atoms: _441  and  _443
REMARK  183  A    between atoms: _443  and  _444
REMARK  184  A    between atoms: _443  and  _446
REMARK  185  A    between atoms: _446  and  _447
REMARK  186  A    between atoms: _450  and  _452
REMARK  187  A    between atoms: _452  and  _453
REMARK  188  A    between atoms: _452  and  _455
REMARK  189  A    between atoms: _458  and  _460
REMARK  190  A    between atoms: _460  and  _461
REMARK  191  A    between atoms: _460  and  _463
REMARK  192  A    between atoms: _463  and  _464
REMARK  193  A    between atoms: _464  and  _465
REMARK  194  A    between atoms: _465  and  _466
REMARK  195  A    between atoms: _475  and  _477
REMARK  196  A    between atoms: _477  and  _478
REMARK  197  A    between atoms: _477  and  _480
REMARK  198  A    between atoms: _480  and  _481
REMARK  199  A    between atoms: _484  and  _486
REMARK  200  A    between atoms: _486  and  _487
REMARK  201  A    between atoms: _486  and  _489
REMARK  202  A    between atoms: _489  and  _490
REMARK  203  A    between atoms: _493  and  _495
REMARK  204  A    between atoms: _495  and  _496
REMARK  205  A    between atoms: _495  and  _498
REMARK  206  A    between atoms: _498  and  _499
REMARK  207  A    between atoms: _499  and  _500
REMARK  208  A    between atoms: _505  and  _507
REMARK  209  A    between atoms: _507  and  _508
REMARK  210  A    between atoms: _507  and  _510
REMARK  211  A    between atoms: _513  and  _515
REMARK  212  A    between atoms: _515  and  _516
REMARK  213  A    between atoms: _515  and  _518
REMARK  214  A    between atoms: _518  and  _519
REMARK  215  A    between atoms: _522  and  _524
REMARK  216  A    between atoms: _524  and  _525
REMARK  217  A    between atoms: _524  and  _527
REMARK  218  A    between atoms: _527  and  _528
REMARK  219  A    between atoms: _528  and  _529
REMARK  220  A    between atoms: _532  and  _534
REMARK  221  A    between atoms: _534  and  _535
REMARK  222  A    between atoms: _534  and  _537
REMARK  223  A    between atoms: _537  and  _538
REMARK  224  A    between atoms: _541  and  _543
REMARK  225  A    between atoms: _543  and  _544
REMARK  226  A    between atoms: _543  and  _546
REMARK  227  A    between atoms: _546  and  _547
REMARK  228  A    between atoms: _550  and  _552
REMARK  229  A    between atoms: _552  and  _553
REMARK  230  A    between atoms: _552  and  _555
REMARK  231  A    between atoms: _555  and  _556
REMARK  232  A    between atoms: _561  and  _563
REMARK  233  A    between atoms: _563  and  _564
REMARK  234  A    between atoms: _567  and  _569
REMARK  235  A    between atoms: _569  and  _570
REMARK  236  A    between atoms: _569  and  _572
REMARK  237  A    between atoms: _572  and  _573
REMARK  238  A    between atoms: _576  and  _578
REMARK  239  A    between atoms: _578  and  _579
REMARK  240  A    between atoms: _578  and  _581
REMARK  241  A    between atoms: _584  and  _586
REMARK  242  A    between atoms: _586  and  _587
REMARK  243  A    between atoms: _586  and  _589
REMARK  244  A    between atoms: _589  and  _590
REMARK  245  A    between atoms: _590  and  _591
REMARK  246  A    between atoms: _591  and  _592
REMARK  247  A    between atoms: _601  and  _603
REMARK  248  A    between atoms: _603  and  _604
REMARK  249  A    between atoms: _603  and  _606
REMARK  250  A    between atoms: _606  and  _607
REMARK  251  A    between atoms: _610  and  _612
REMARK  252  A    between atoms: _612  and  _613
REMARK  253  A    between atoms: _612  and  _615
REMARK  254  A    between atoms: _615  and  _616
REMARK  255  A    between atoms: _619  and  _621
REMARK  256  A    between atoms: _621  and  _622
REMARK  257  A    between atoms: _621  and  _624
REMARK  258  A    between atoms: _624  and  _625
REMARK  259  A    between atoms: _625  and  _626
REMARK  260  A    between atoms: _631  and  _633
REMARK  261  A    between atoms: _633  and  _634
REMARK  262  A    between atoms: _633  and  _636
REMARK  263  A    between atoms: _639  and  _641
REMARK  264  A    between atoms: _641  and  _642
REMARK  265  A    between atoms: _641  and  _644
REMARK  266  A    between atoms: _644  and  _645
REMARK                            x       y       z     vdW  Elec       q    Type
REMARK                         _______ _______ _______ _____ _____    ______ ____
ROOT
ATOM      1  C   LEU A   1      -5.136   1.595   5.558  0.00  0.00    +0.238 C 
ATOM      2  O   LEU A   1      -5.965   1.506   6.464  0.00  0.00    -0.274 OA
ATOM      3  N   LEU A   2      -3.979   2.232   5.708  0.00  0.00    -0.298 N 
ATOM      4  H   LEU A   2      -3.310   2.278   4.913  0.00  0.00    +0.150 HD
ENDROOT
BRANCH   1   5
ATOM      5  CA  LEU A   1      -5.402   0.955   4.193  0.00  0.00    +0.145 C 
BRANCH   5   6
ATOM      6  N   LEU A   1      -4.947   1.781   3.082  0.00  0.00    -0.238 NA
ATOM      7  H   LEU A   1      -4.162   1.441   2.490  0.00  0.00    +0.142 HD
ENDBRANCH   5   6
BRANCH   5   8
ATOM      8  CB  LEU A   1      -4.727  -0.421   4.137  0.00  0.00    +0.026 C 
BRANCH   8   9
ATOM      9  CG  LEU A   1      -5.238  -1.354   3.036  0.00  0.00    +0.002 C 
ATOM     10  CD2 LEU A   1      -6.675  -1.725   3.345  0.00  0.00    +0.000 C 
ATOM     11  CD1 LEU A   1      -4.379  -2.587   2.939  0.00  0.00    +0.000 C 
ENDBRANCH   8   9
ENDBRANCH   5   8
ENDBRANCH   1   5
BRANCH   3  12
ATOM     12  CA  LEU A   2      -3.639   2.866   6.974  0.00  0.00    +0.137 C 
BRANCH  12  13
ATOM     13  C   LEU A   2      -4.555   4.054   7.243  0.00  0.00    +0.227 C 
ATOM     14  O   LEU A   2      -4.956   4.278   8.388  0.00  0.00    -0.286 OA
ENDBRANCH  12  13
BRANCH  12  15
ATOM     15  CB  LEU A   2      -2.173   3.306   6.978  0.00  0.00    +0.028 C 
BRANCH  15  16
ATOM     16  CG  LEU A   2      -1.577   3.674   8.341  0.00  0.00    +0.002 C 
ATOM     17  CD2 LEU A   2      -1.853   2.566   9.353  0.00  0.00    +0.000 C 
ATOM     18  CD1 LEU A   2      -0.071   3.918   8.195  0.00  0.00    +0.000 C 
ENDBRANCH  15  16
ENDBRANCH  12  15
ENDBRANCH   3  12
TORSDOF 8
REMARK  Name = ../refined-set-2016/3v2q/3v2q_pocket.pdb
REMARK  266 active torsions:
REMARK  status: ('A' for Active; 'I' for Inactive)
REMARK    1  A    between atoms: _1  and  _3
REMARK    2  A    between atoms: _3  and  _4
REMARK    3  A    between atoms: _3  and  _6
REMARK    4  A    between atoms: _6  and  _7
REMARK    5  A    between atoms: _7  and  _8
REMARK    6  A    between atoms: _11  and  _13
REMARK    7  A    between atoms: _13  and  _14
REMARK    8  A    between atoms: _13  and  _16
REMARK    9  A    between atoms: _16  and  _17
REMARK   10  A    between atoms: _20  and  _22
REMARK   11  A    between atoms: _22  and  _23
REMARK   12  A    between atoms: _22  and  _25
REMARK   13  A    between atoms: _25  and  _26
REMARK   14  A    between atoms: _29  and  _31
REMARK   15  A    between atoms: _31  and  _32
REMARK   16  A    between atoms: _31  and  _34
REMARK   17  A    between atoms: _34  and  _35
REMARK   18  A    between atoms: _40  and  _42
REMARK   19  A    between atoms: _42  and  _43
REMARK   20  A    between atoms: _46  and  _48
REMARK   21  A    between atoms: _48  and  _49
REMARK   22  A    between atoms: _48  and  _51
REMARK   23  A    between atoms: _51  and  _52
REMARK   24  A    between atoms: _55  and  _57
REMARK   25  A    between atoms: _57  and  _58
REMARK   26  A    between atoms: _57  and  _60
REMARK   27  A    between atoms: _63  and  _65
REMARK   28  A    between atoms: _65  and  _66
REMARK   29  A    between atoms: _65  and  _68
REMARK   30  A    between atoms: _68  and  _69
REMARK   31  A    between atoms: _69  and  _70
REMARK   32  A    between atoms: _70  and  _71
REMARK   33  A    between atoms: _80  and  _82
REMARK   34  A    between atoms: _82  and  _83
REMARK   35  A    between atoms: _82  and  _85
REMARK   36  A    between atoms: _85  and  _86
REMARK   37  A    between atoms: _89  and  _91
REMARK   38  A    between atoms: _91  and  _92
REMARK   39  A    between atoms: _91  and  _94
REMARK   40  A    between atoms: _94  and  _95
REMARK   41  A    between atoms: _98  and  _100
REMARK   42  A    between atoms: _100  and  _101
REMARK   43  A    between atoms: _100  and  _103
REMARK   44  A    between atoms: _103  and  _104
REMARK   45  A    between atoms: _104  and  _105
REMARK   46  A    between atoms: _110  and  _112
REMARK   47  A    between atoms: _112  and  _113
REMARK   48  A    between atoms: _112  and  _115
REMARK   49  A    between atoms: _118  and  _120
REMARK   50  A    between atoms: _120  and  _121
REMARK   51  A    between atoms: _120  and  _123
REMARK   52  A    between atoms: _123  and  _124
REMARK   53  A    between atoms: _127  and  _129
REMARK   54  A    between atoms: _129  and  _130
REMARK   55  A    between atoms: _129  and  _132
REMARK   56  A    between atoms: _132  and  _133
REMARK   57  A    between atoms: _133  and  _134
REMARK   58  A    between atoms: _137  and  _139
REMARK   59  A    between atoms: _139  and  _140
REMARK   60  A    between atoms: _139  and  _142
REMARK   61  A    between atoms: _142  and  _143
REMARK   62  A    between atoms: _146  and  _148
REMARK   63  A    between atoms: _148  and  _149
REMARK   64  A    between atoms: _148  and  _151
REMARK   65  A    between atoms: _151  and  _152
REMARK   66  A    between atoms: _155  and  _157
REMARK   67  A    between atoms: _157  and  _158
REMARK   68  A    between atoms: _157  and  _160
REMARK   69  A    between atoms: _160  and  _161
REMARK   70  A    between atoms: _166  and  _168
REMARK   71  A    between atoms: _168  and  _169
REMARK   72  A    between atoms: _172  and  _174
REMARK   73  A    between atoms: _174  and  _175
REMARK   74  A    between atoms: _174  and  _177
REMARK   75  A    between atoms: _177  and  _178
REMARK   76  A    between atoms: _181  and  _183
REMARK   77  A    between atoms: _183  and  _184
REMARK   78  A    between atoms: _183  and  _186
REMARK   79  A    between atoms: _189  and  _191
REMARK   80  A    between atoms: _191  and  _192
REMARK   81  A    between atoms: _191  and  _194
REMARK   82  A    between atoms: _194  and  _195
REMARK   83  A    between atoms: _195  and  _196
REMARK   84  A    between atoms: _196  and  _197
REMARK   85  A    between atoms: _206  and  _208
REMARK   86  A    between atoms: _208  and  _209
REMARK   87  A    between atoms: _208  and  _211
REMARK   88  A    between atoms: _211  and  _212
REMARK   89  A    between atoms: _215  and  _217
REMARK   90  A    between atoms: _217  and  _218
REMARK   91  A    between atoms: _217  and  _220
REMARK   92  A    between atoms: _220  and  _221
REMARK   93  A    between atoms: _224  and  _226
REMARK   94  A    between atoms: _226  and  _227
REMARK   95  A    between atoms: _226  and  _229
REMARK   96  A    between atoms: _229  and  _230
REMARK   97  A    between atoms: _230  and  _231
REMARK   98  A    between atoms: _236  and  _238
REMARK   99  A    between atoms: _238  and  _239
REMARK  100  A    between atoms: _238  and  _241
REMARK  101  A    between atoms: _244  and  _246
REMARK  102  A    between atoms: _246  and  _247
REMARK  103  A    between atoms: _246  and  _249
REMARK  104  A    between atoms: _249  and  _250
REMARK  105  A    between atoms: _253  and  _255
REMARK  106  A    between atoms: _255  and  _256
REMARK  107  A    between atoms: _255  and  _258
REMARK  108  A    between atoms: _258  and  _259
REMARK  109  A    between atoms: _259  and  _260
REMARK  110  A    between atoms: _263  and  _265
REMARK  111  A    between atoms: _265  and  _266
REMARK  112  A    between atoms: _265  and  _268
REMARK  113  A    between atoms: _268  and  _269
REMARK  114  A    between atoms: _272  and  _274
REMARK  115  A    between atoms: _274  and  _275
REMARK  116  A    between atoms: _274  and  _277
REMARK  117  A    between atoms: _277  and  _278
REMARK  118  A    between atoms: _281  and  _283
REMARK  119  A    between atoms: _283  and  _284
REMARK  120  A    between atoms: _283  and  _286
REMARK  121  A    between atoms: _286  and  _287
REMARK  122  A    between atoms: _292  and  _294
REMARK  123  A    between atoms: _294  and  _295
REMARK  124  A    between atoms: _298  and  _300
REMARK  125  A    between atoms: _300  and  _301
REMARK  126  A    between atoms: _300  and  _303
REMARK  127  A    between atoms: _303  and  _304
REMARK  128  A    between atoms: _307  and  _309
REMARK  129  A    between atoms: _309  and  _310
REMARK  130  A    between atoms: _309  and  _312
REMARK  131  A    between atoms: _315  and  _317
REMARK  132  A    between atoms: _317  and  _318
REMARK  133  A    between atoms: _317  and  _320
REMARK  134  A    between atoms: _320  and  _321
REMARK  135  A    between atoms: _321  and  _322
REMARK  136  A    between atoms: _322  and  _323
REMARK  137  A    between atoms: _332  and  _334
REMARK  138  A    between atoms: _334  and  _335
REMARK  139  A    between atoms: _334  and  _337
REMARK  140  A    between atoms: _337  and  _338
REMARK  141  A    between atoms: _341  and  _343
REMARK  142  A    between atoms: _343  and  _344
REMARK  143  A    between atoms: _343  and  _346
REMARK  144  A    between atoms: _346  and  _347
REMARK  145  A    between atoms: _350  and  _352
REMARK  146  A    between atoms: _352  and  _353
REMARK  147  A    between atoms: _352  and  _355
REMARK  148  A    between atoms: _355  and  _356
REMARK  149  A    between atoms: _356  and  _357
REMARK  150  A    between atoms: _357  and  _358
REMARK  151  A    between atoms: _367  and  _369
REMARK  152  A    between atoms: _369  and  _370
REMARK  153  A    between atoms: _369  and  _372
REMARK  154  A    between atoms: _372  and  _373
REMARK  155  A    between atoms: _373  and  _374
REMARK  156  A    between atoms: _379  and  _381
REMARK  157  A    between atoms: _381  and  _382
REMARK  158  A    between atoms: _381  and  _384
REMARK  159  A    between atoms: _387  and  _389
REMARK  160  A    between atoms: _389  and  _390
REMARK  161  A    between atoms: _389  and  _392
REMARK  162  A    between atoms: _392  and  _393
REMARK  163  A    between atoms: _396  and  _398
REMARK  164  A    between atoms: _398  and  _399
REMARK  165  A    between atoms: _398  and  _401
REMARK  166  A    between atoms: _401  and  _402
REMARK  167  A    between atoms: _402  and  _403
REMARK  168  A    between atoms: _406  and  _408
REMARK  169  A    between atoms: _408  and  _409
REMARK  170  A    between atoms: _408  and  _411
REMARK  171  A    between atoms: _411  and  _412
REMARK  172  A    between atoms: _415  and  _417
REMARK  173  A    between atoms: _417  and  _418
REMARK  174  A    between atoms: _417  and  _420
REMARK  175  A    between atoms: _420  and  _421
REMARK  176  A    between atoms: _424  and  _426
REMARK  177  A    between atoms: _426  and  _427
REMARK  178  A    between atoms: _426  and  _429
REMARK  179  A    between atoms: _429  and  _430
REMARK  180  A    between atoms: _435  and  _437
REMARK  181  A    between atoms: _437  and  _438
REMARK  182  A    between atoms: _441  and  _443
REMARK  183  A    between atoms: _443  and  _444
REMARK  184  A    between atoms: _443  and  _446
REMARK  185  A    between atoms: _446  and  _447
REMARK  186  A    between atoms: _450  and  _452
REMARK  187  A    between atoms: _452  and  _453
REMARK  188  A    between atoms: _452  and  _455
REMARK  189  A    between atoms: _458  and  _460
REMARK  190  A    between atoms: _460  and  _461
REMARK  191  A    between atoms: _460  and  _463
REMARK  192  A    between atoms: _463  and  _464
REMARK  193  A    between atoms: _464  and  _465
REMARK  194  A    between atoms: _465  and  _466
REMARK  195  A    between atoms: _475  and  _477
REMARK  196  A    between atoms: _477  and  _478
REMARK  197  A    between atoms: _477  and  _480
REMARK  198  A    between atoms: _480  and  _481
REMARK  199  A    between atoms: _484  and  _486
REMARK  200  A    between atoms: _486  and  _487
REMARK  201  A    between atoms: _486  and  _489
REMARK  202  A    between atoms: _489  and  _490
REMARK  203  A    between atoms: _493  and  _495
REMARK  204  A    between atoms: _495  and  _496
REMARK  205  A    between atoms: _495  and  _498
REMARK  206  A    between atoms: _498  and  _499
REMARK  207  A    between atoms: _499  and  _500
REMARK  208  A    between atoms: _505  and  _507
REMARK  209  A    between atoms: _507  and  _508
REMARK  210  A    between atoms: _507  and  _510
REMARK  211  A    between atoms: _513  and  _515
REMARK  212  A    between atoms: _515  and  _516
REMARK  213  A    between atoms: _515  and  _518
REMARK  214  A    between atoms: _518  and  _519
REMARK  215  A    between atoms: _522  and  _524
REMARK  216  A    between atoms: _524  and  _525
REMARK  217  A    between atoms: _524  and  _527
REMARK  218  A    between atoms: _527  and  _528
REMARK  219  A    between atoms: _528  and  _529
REMARK  220  A    between atoms: _532  and  _534
REMARK  221  A    between atoms: _534  and  _535
REMARK  222  A    between atoms: _534  and  _537
REMARK  223  A    between atoms: _537  and  _538
REMARK  224  A    between atoms: _541  and  _543
REMARK  225  A    between atoms: _543  and  _544
REMARK  226  A    between atoms: _543  and  _546
REMARK  227  A    between atoms: _546  and  _547
REMARK  228  A    between atoms: _550  and  _552
REMARK  229  A    between atoms: _552  and  _553
REMARK  230  A    between atoms: _552  and  _555
REMARK  231  A    between atoms: _555  and  _556
REMARK  232  A    between atoms: _561  and  _563
REMARK  233  A    between atoms: _563  and  _564
REMARK  234  A    between atoms: _567  and  _569
REMARK  235  A    between atoms: _569  and  _570
REMARK  236  A    between atoms: _569  and  _572
REMARK  237  A    between atoms: _572  and  _573
REMARK  238  A    between atoms: _576  and  _578
REMARK  239  A    between atoms: _578  and  _579
REMARK  240  A    between atoms: _578  and  _581
REMARK  241  A    between atoms: _584  and  _586
REMARK  242  A    between atoms: _586  and  _587
REMARK  243  A    between atoms: _586  and  _589
REMARK  244  A    between atoms: _589  and  _590
REMARK  245  A    between atoms: _590  and  _591
REMARK  246  A    between atoms: _591  and  _592
REMARK  247  A    between atoms: _601  and  _603
REMARK  248  A    between atoms: _603  and  _604
REMARK  249  A    between atoms: _603  and  _606
REMARK  250  A    between atoms: _606  and  _607
REMARK  251  A    between atoms: _610  and  _612
REMARK  252  A    between atoms: _612  and  _613
REMARK  253  A    between atoms: _612  and  _615
REMARK  254  A    between atoms: _615  and  _616
REMARK  255  A    between atoms: _619  and  _621
REMARK  256  A    between atoms: _621  and  _622
REMARK  257  A    between atoms: _621  and  _624
REMARK  258  A    between atoms: _624  and  _625
REMARK  259  A    between atoms: _625  and  _626
REMARK  260  A    between atoms: _631  and  _633
REMARK  261  A    between atoms: _633  and  _634
REMARK  262  A    between atoms: _633  and  _636
REMARK  263  A    between atoms: _639  and  _641
REMARK  264  A    between atoms: _641  and  _642
REMARK  265  A    between atoms: _641  and  _644
REMARK  266  A    between atoms: _644  and  _645
REMARK                            x       y       z     vdW  Elec       q    Type
REMARK                         _______ _______ _______ _____ _____    ______ ____
ROOT
ATOM      1  CA  GLN A   1      -7.331   2.095   9.857  0.00  0.00    +0.145 C 
ENDROOT
BRANCH   1   2
ATOM      2  C   GLN A   1      -7.309   3.199  10.913  0.00  0.00    +0.238 C 
ATOM      3  O   GLN A   1      -7.835   3.022  12.016  0.00  0.00    -0.274 OA
ATOM      4  N   VAL A   2      -6.711   4.338  10.582  0.00  0.00    -0.298 N 
ATOM      5  H   VAL A   2      -6.269   4.435   9.645  0.00  0.00    +0.150 HD
BRANCH   4   6
ATOM      6  CA  VAL A   2      -6.668   5.456  11.521  0.00  0.00    +0.137 C 
BRANCH   6   7
ATOM      7  CB  VAL A   2      -5.831   6.637  10.973  0.00  0.00    +0.026 C 
ATOM      8  CG2 VAL A   2      -5.854   7.790  11.969  0.00  0.00    +0.002 C 
ATOM      9  CG1 VAL A   2      -4.403   6.193  10.730  0.00  0.00    +0.002 C 
ENDBRANCH   6   7
BRANCH   6  10
ATOM     10  C   VAL A   2      -8.090   5.954  11.800  0.00  0.00    +0.227 C 
ATOM     11  O   VAL A   2      -8.423   6.293  12.937  0.00  0.00    -0.286 OA
ENDBRANCH   6  10
ENDBRANCH   4   6
ENDBRANCH   1   2
BRANCH   1  12
ATOM     12  N   GLN A   1      -7.606   2.633   8.530  0.00  0.00    -0.238 NA
ATOM     13  H   GLN A   1      -6.902   2.499   7.777  0.00  0.00    +0.142 HD
ENDBRANCH   1  12
BRANCH   1  14
ATOM     14  CB  GLN A   1      -6.001   1.327   9.844  0.00  0.00    +0.036 C 
BRANCH  14  15
ATOM     15  CG  GLN A   1      -5.679   0.594  11.130  0.00  0.00    +0.087 C 
BRANCH  15  16
ATOM     16  CD  GLN A   1      -4.463  -0.323  10.996  0.00  0.00    +0.219 C 
ATOM     17  NE2 GLN A   1      -3.272   0.256  11.067  0.00  0.00    -0.329 N 
ATOM     18 HE21 GLN A   1      -3.201   1.282  11.220  0.00  0.00    +0.145 HD
ATOM     19 HE22 GLN A   1      -2.409  -0.316  10.970  0.00  0.00    +0.145 HD
ATOM     20  OE1 GLN A   1      -4.599  -1.527  10.817  0.00  0.00    -0.275 OA
ENDBRANCH  15  16
ENDBRANCH  14  15
ENDBRANCH   1  14
TORSDOF 8
REMARK  Name = ../refined-set-2016/3v2q/3v2q_pocket.pdb
REMARK  266 active torsions:
REMARK  status: ('A' for Active; 'I' for Inactive)
REMARK    1  A    between atoms: _1  and  _3
REMARK    2  A    between atoms: _3  and  _4
REMARK    3  A    between atoms: _3  and  _6
REMARK    4  A    between atoms: _6  and  _7
REMARK    5  A    between atoms: _7  and  _8
REMARK    6  A    between atoms: _11  and  _13
REMARK    7  A    between atoms: _13  and  _14
REMARK    8  A    between atoms: _13  and  _16
REMARK    9  A    between atoms: _16  and  _17
REMARK   10  A    between atoms: _20  and  _22
REMARK   11  A    between atoms: _22  and  _23
REMARK   12  A    between atoms: _22  and  _25
REMARK   13  A    between atoms: _25  and  _26
REMARK   14  A    between atoms: _29  and  _31
REMARK   15  A    between atoms: _31  and  _32
REMARK   16  A    between atoms: _31  and  _34
REMARK   17  A    between atoms: _34  and  _35
REMARK   18  A    between atoms: _40  and  _42
REMARK   19  A    between atoms: _42  and  _43
REMARK   20  A    between atoms: _46  and  _48
REMARK   21  A    between atoms: _48  and  _49
REMARK   22  A    between atoms: _48  and  _51
REMARK   23  A    between atoms: _51  and  _52
REMARK   24  A    between atoms: _55  and  _57
REMARK   25  A    between atoms: _57  and  _58
REMARK   26  A    between atoms: _57  and  _60
REMARK   27  A    between atoms: _63  and  _65
REMARK   28  A    between atoms: _65  and  _66
REMARK   29  A    between atoms: _65  and  _68
REMARK   30  A    between atoms: _68  and  _69
REMARK   31  A    between atoms: _69  and  _70
REMARK   32  A    between atoms: _70  and  _71
REMARK   33  A    between atoms: _80  and  _82
REMARK   34  A    between atoms: _82  and  _83
REMARK   35  A    between atoms: _82  and  _85
REMARK   36  A    between atoms: _85  and  _86
REMARK   37  A    between atoms: _89  and  _91
REMARK   38  A    between atoms: _91  and  _92
REMARK   39  A    between atoms: _91  and  _94
REMARK   40  A    between atoms: _94  and  _95
REMARK   41  A    between atoms: _98  and  _100
REMARK   42  A    between atoms: _100  and  _101
REMARK   43  A    between atoms: _100  and  _103
REMARK   44  A    between atoms: _103  and  _104
REMARK   45  A    between atoms: _104  and  _105
REMARK   46  A    between atoms: _110  and  _112
REMARK   47  A    between atoms: _112  and  _113
REMARK   48  A    between atoms: _112  and  _115
REMARK   49  A    between atoms: _118  and  _120
REMARK   50  A    between atoms: _120  and  _121
REMARK   51  A    between atoms: _120  and  _123
REMARK   52  A    between atoms: _123  and  _124
REMARK   53  A    between atoms: _127  and  _129
REMARK   54  A    between atoms: _129  and  _130
REMARK   55  A    between atoms: _129  and  _132
REMARK   56  A    between atoms: _132  and  _133
REMARK   57  A    between atoms: _133  and  _134
REMARK   58  A    between atoms: _137  and  _139
REMARK   59  A    between atoms: _139  and  _140
REMARK   60  A    between atoms: _139  and  _142
REMARK   61  A    between atoms: _142  and  _143
REMARK   62  A    between atoms: _146  and  _148
REMARK   63  A    between atoms: _148  and  _149
REMARK   64  A    between atoms: _148  and  _151
REMARK   65  A    between atoms: _151  and  _152
REMARK   66  A    between atoms: _155  and  _157
REMARK   67  A    between atoms: _157  and  _158
REMARK   68  A    between atoms: _157  and  _160
REMARK   69  A    between atoms: _160  and  _161
REMARK   70  A    between atoms: _166  and  _168
REMARK   71  A    between atoms: _168  and  _169
REMARK   72  A    between atoms: _172  and  _174
REMARK   73  A    between atoms: _174  and  _175
REMARK   74  A    between atoms: _174  and  _177
REMARK   75  A    between atoms: _177  and  _178
REMARK   76  A    between atoms: _181  and  _183
REMARK   77  A    between atoms: _183  and  _184
REMARK   78  A    between atoms: _183  and  _186
REMARK   79  A    between atoms: _189  and  _191
REMARK   80  A    between atoms: _191  and  _192
REMARK   81  A    between atoms: _191  and  _194
REMARK   82  A    between atoms: _194  and  _195
REMARK   83  A    between atoms: _195  and  _196
REMARK   84  A    between atoms: _196  and  _197
REMARK   85  A    between atoms: _206  and  _208
REMARK   86  A    between atoms: _208  and  _209
REMARK   87  A    between atoms: _208  and  _211
REMARK   88  A    between atoms: _211  and  _212
REMARK   89  A    between atoms: _215  and  _217
REMARK   90  A    between atoms: _217  and  _218
REMARK   91  A    between atoms: _217  and  _220
REMARK   92  A    between atoms: _220  and  _221
REMARK   93  A    between atoms: _224  and  _226
REMARK   94  A    between atoms: _226  and  _227
REMARK   95  A    between atoms: _226  and  _229
REMARK   96  A    between atoms: _229  and  _230
REMARK   97  A    between atoms: _230  and  _231
REMARK   98  A    between atoms: _236  and  _238
REMARK   99  A    between atoms: _238  and  _239
REMARK  100  A    between atoms: _238  and  _241
REMARK  101  A    between atoms: _244  and  _246
REMARK  102  A    between atoms: _246  and  _247
REMARK  103  A    between atoms: _246  and  _249
REMARK  104  A    between atoms: _249  and  _250
REMARK  105  A    between atoms: _253  and  _255
REMARK  106  A    between atoms: _255  and  _256
REMARK  107  A    between atoms: _255  and  _258
REMARK  108  A    between atoms: _258  and  _259
REMARK  109  A    between atoms: _259  and  _260
REMARK  110  A    between atoms: _263  and  _265
REMARK  111  A    between atoms: _265  and  _266
REMARK  112  A    between atoms: _265  and  _268
REMARK  113  A    between atoms: _268  and  _269
REMARK  114  A    between atoms: _272  and  _274
REMARK  115  A    between atoms: _274  and  _275
REMARK  116  A    between atoms: _274  and  _277
REMARK  117  A    between atoms: _277  and  _278
REMARK  118  A    between atoms: _281  and  _283
REMARK  119  A    between atoms: _283  and  _284
REMARK  120  A    between atoms: _283  and  _286
REMARK  121  A    between atoms: _286  and  _287
REMARK  122  A    between atoms: _292  and  _294
REMARK  123  A    between atoms: _294  and  _295
REMARK  124  A    between atoms: _298  and  _300
REMARK  125  A    between atoms: _300  and  _301
REMARK  126  A    between atoms: _300  and  _303
REMARK  127  A    between atoms: _303  and  _304
REMARK  128  A    between atoms: _307  and  _309
REMARK  129  A    between atoms: _309  and  _310
REMARK  130  A    between atoms: _309  and  _312
REMARK  131  A    between atoms: _315  and  _317
REMARK  132  A    between atoms: _317  and  _318
REMARK  133  A    between atoms: _317  and  _320
REMARK  134  A    between atoms: _320  and  _321
REMARK  135  A    between atoms: _321  and  _322
REMARK  136  A    between atoms: _322  and  _323
REMARK  137  A    between atoms: _332  and  _334
REMARK  138  A    between atoms: _334  and  _335
REMARK  139  A    between atoms: _334  and  _337
REMARK  140  A    between atoms: _337  and  _338
REMARK  141  A    between atoms: _341  and  _343
REMARK  142  A    between atoms: _343  and  _344
REMARK  143  A    between atoms: _343  and  _346
REMARK  144  A    between atoms: _346  and  _347
REMARK  145  A    between atoms: _350  and  _352
REMARK  146  A    between atoms: _352  and  _353
REMARK  147  A    between atoms: _352  and  _355
REMARK  148  A    between atoms: _355  and  _356
REMARK  149  A    between atoms: _356  and  _357
REMARK  150  A    between atoms: _357  and  _358
REMARK  151  A    between atoms: _367  and  _369
REMARK  152  A    between atoms: _369  and  _370
REMARK  153  A    between atoms: _369  and  _372
REMARK  154  A    between atoms: _372  and  _373
REMARK  155  A    between atoms: _373  and  _374
REMARK  156  A    between atoms: _379  and  _381
REMARK  157  A    between atoms: _381  and  _382
REMARK  158  A    between atoms: _381  and  _384
REMARK  159  A    between atoms: _387  and  _389
REMARK  160  A    between atoms: _389  and  _390
REMARK  161  A    between atoms: _389  and  _392
REMARK  162  A    between atoms: _392  and  _393
REMARK  163  A    between atoms: _396  and  _398
REMARK  164  A    between atoms: _398  and  _399
REMARK  165  A    between atoms: _398  and  _401
REMARK  166  A    between atoms: _401  and  _402
REMARK  167  A    between atoms: _402  and  _403
REMARK  168  A    between atoms: _406  and  _408
REMARK  169  A    between atoms: _408  and  _409
REMARK  170  A    between atoms: _408  and  _411
REMARK  171  A    between atoms: _411  and  _412
REMARK  172  A    between atoms: _415  and  _417
REMARK  173  A    between atoms: _417  and  _418
REMARK  174  A    between atoms: _417  and  _420
REMARK  175  A    between atoms: _420  and  _421
REMARK  176  A    between atoms: _424  and  _426
REMARK  177  A    between atoms: _426  and  _427
REMARK  178  A    between atoms: _426  and  _429
REMARK  179  A    between atoms: _429  and  _430
REMARK  180  A    between atoms: _435  and  _437
REMARK  181  A    between atoms: _437  and  _438
REMARK  182  A    between atoms: _441  and  _443
REMARK  183  A    between atoms: _443  and  _444
REMARK  184  A    between atoms: _443  and  _446
REMARK  185  A    between atoms: _446  and  _447
REMARK  186  A    between atoms: _450  and  _452
REMARK  187  A    between atoms: _452  and  _453
REMARK  188  A    between atoms: _452  and  _455
REMARK  189  A    between atoms: _458  and  _460
REMARK  190  A    between atoms: _460  and  _461
REMARK  191  A    between atoms: _460  and  _463
REMARK  192  A    between atoms: _463  and  _464
REMARK  193  A    between atoms: _464  and  _465
REMARK  194  A    between atoms: _465  and  _466
REMARK  195  A    between atoms: _475  and  _477
REMARK  196  A    between atoms: _477  and  _478
REMARK  197  A    between atoms: _477  and  _480
REMARK  198  A    between atoms: _480  and  _481
REMARK  199  A    between atoms: _484  and  _486
REMARK  200  A    between atoms: _486  and  _487
REMARK  201  A    between atoms: _486  and  _489
REMARK  202  A    between atoms: _489  and  _490
REMARK  203  A    between atoms: _493  and  _495
REMARK  204  A    between atoms: _495  and  _496
REMARK  205  A    between atoms: _495  and  _498
REMARK  206  A    between atoms: _498  and  _499
REMARK  207  A    between atoms: _499  and  _500
REMARK  208  A    between atoms: _505  and  _507
REMARK  209  A    between atoms: _507  and  _508
REMARK  210  A    between atoms: _507  and  _510
REMARK  211  A    between atoms: _513  and  _515
REMARK  212  A    between atoms: _515  and  _516
REMARK  213  A    between atoms: _515  and  _518
REMARK  214  A    between atoms: _518  and  _519
REMARK  215  A    between atoms: _522  and  _524
REMARK  216  A    between atoms: _524  and  _525
REMARK  217  A    between atoms: _524  and  _527
REMARK  218  A    between atoms: _527  and  _528
REMARK  219  A    between atoms: _528  and  _529
REMARK  220  A    between atoms: _532  and  _534
REMARK  221  A    between atoms: _534  and  _535
REMARK  222  A    between atoms: _534  and  _537
REMARK  223  A    between atoms: _537  and  _538
REMARK  224  A    between atoms: _541  and  _543
REMARK  225  A    between atoms: _543  and  _544
REMARK  226  A    between atoms: _543  and  _546
REMARK  227  A    between atoms: _546  and  _547
REMARK  228  A    between atoms: _550  and  _552
REMARK  229  A    between atoms: _552  and  _553
REMARK  230  A    between atoms: _552  and  _555
REMARK  231  A    between atoms: _555  and  _556
REMARK  232  A    between atoms: _561  and  _563
REMARK  233  A    between atoms: _563  and  _564
REMARK  234  A    between atoms: _567  and  _569
REMARK  235  A    between atoms: _569  and  _570
REMARK  236  A    between atoms: _569  and  _572
REMARK  237  A    between atoms: _572  and  _573
REMARK  238  A    between atoms: _576  and  _578
REMARK  239  A    between atoms: _578  and  _579
REMARK  240  A    between atoms: _578  and  _581
REMARK  241  A    between atoms: _584  and  _586
REMARK  242  A    between atoms: _586  and  _587
REMARK  243  A    between atoms: _586  and  _589
REMARK  244  A    between atoms: _589  and  _590
REMARK  245  A    between atoms: _590  and  _591
REMARK  246  A    between atoms: _591  and  _592
REMARK  247  A    between atoms: _601  and  _603
REMARK  248  A    between atoms: _603  and  _604
REMARK  249  A    between atoms: _603  and  _606
REMARK  250  A    between atoms: _606  and  _607
REMARK  251  A    between atoms: _610  and  _612
REMARK  252  A    between atoms: _612  and  _613
REMARK  253  A    between atoms: _612  and  _615
REMARK  254  A    between atoms: _615  and  _616
REMARK  255  A    between atoms: _619  and  _621
REMARK  256  A    between atoms: _621  and  _622
REMARK  257  A    between atoms: _621  and  _624
REMARK  258  A    between atoms: _624  and  _625
REMARK  259  A    between atoms: _625  and  _626
REMARK  260  A    between atoms: _631  and  _633
REMARK  261  A    between atoms: _633  and  _634
REMARK  262  A    between atoms: _633  and  _636
REMARK  263  A    between atoms: _639  and  _641
REMARK  264  A    between atoms: _641  and  _642
REMARK  265  A    between atoms: _641  and  _644
REMARK  266  A    between atoms: _644  and  _645
REMARK                            x       y       z     vdW  Elec       q    Type
REMARK                         _______ _______ _______ _____ _____    ______ ____
ROOT
ATOM      1  CA  ILE A   1      -9.132   3.738  15.524  0.00  0.00    +0.133 C 
ENDROOT
BRANCH   1   2
ATOM      2  N   ILE A   1      -9.700   3.635  14.191  0.00  0.00    -0.239 NA
ATOM      3  H   ILE A   1      -9.092   3.768  13.358  0.00  0.00    +0.142 HD
ENDBRANCH   1   2
BRANCH   1   4
ATOM      4  C   ILE A   1      -9.624   4.997  16.234  0.00  0.00    +0.224 C 
ATOM      5  O   ILE A   1      -9.920   4.965  17.434  0.00  0.00    -0.287 OA
ENDBRANCH   1   4
BRANCH   1   6
ATOM      6  CB  ILE A   1      -7.578   3.684  15.479  0.00  0.00    +0.023 C 
ATOM      7  CG2 ILE A   1      -6.990   3.997  16.844  0.00  0.00    +0.002 C 
BRANCH   6   8
ATOM      8  CG1 ILE A   1      -7.132   2.277  15.042  0.00  0.00    +0.002 C 
ATOM      9  CD1 ILE A   1      -5.634   2.081  14.948  0.00  0.00    +0.000 C 
ENDBRANCH   6   8
ENDBRANCH   1   6
TORSDOF 4
REMARK  Name = ../refined-set-2016/3v2q/3v2q_pocket.pdb
REMARK  266 active torsions:
REMARK  status: ('A' for Active; 'I' for Inactive)
REMARK    1  A    between atoms: _1  and  _3
REMARK    2  A    between atoms: _3  and  _4
REMARK    3  A    between atoms: _3  and  _6
REMARK    4  A    between atoms: _6  and  _7
REMARK    5  A    between atoms: _7  and  _8
REMARK    6  A    between atoms: _11  and  _13
REMARK    7  A    between atoms: _13  and  _14
REMARK    8  A    between atoms: _13  and  _16
REMARK    9  A    between atoms: _16  and  _17
REMARK   10  A    between atoms: _20  and  _22
REMARK   11  A    between atoms: _22  and  _23
REMARK   12  A    between atoms: _22  and  _25
REMARK   13  A    between atoms: _25  and  _26
REMARK   14  A    between atoms: _29  and  _31
REMARK   15  A    between atoms: _31  and  _32
REMARK   16  A    between atoms: _31  and  _34
REMARK   17  A    between atoms: _34  and  _35
REMARK   18  A    between atoms: _40  and  _42
REMARK   19  A    between atoms: _42  and  _43
REMARK   20  A    between atoms: _46  and  _48
REMARK   21  A    between atoms: _48  and  _49
REMARK   22  A    between atoms: _48  and  _51
REMARK   23  A    between atoms: _51  and  _52
REMARK   24  A    between atoms: _55  and  _57
REMARK   25  A    between atoms: _57  and  _58
REMARK   26  A    between atoms: _57  and  _60
REMARK   27  A    between atoms: _63  and  _65
REMARK   28  A    between atoms: _65  and  _66
REMARK   29  A    between atoms: _65  and  _68
REMARK   30  A    between atoms: _68  and  _69
REMARK   31  A    between atoms: _69  and  _70
REMARK   32  A    between atoms: _70  and  _71
REMARK   33  A    between atoms: _80  and  _82
REMARK   34  A    between atoms: _82  and  _83
REMARK   35  A    between atoms: _82  and  _85
REMARK   36  A    between atoms: _85  and  _86
REMARK   37  A    between atoms: _89  and  _91
REMARK   38  A    between atoms: _91  and  _92
REMARK   39  A    between atoms: _91  and  _94
REMARK   40  A    between atoms: _94  and  _95
REMARK   41  A    between atoms: _98  and  _100
REMARK   42  A    between atoms: _100  and  _101
REMARK   43  A    between atoms: _100  and  _103
REMARK   44  A    between atoms: _103  and  _104
REMARK   45  A    between atoms: _104  and  _105
REMARK   46  A    between atoms: _110  and  _112
REMARK   47  A    between atoms: _112  and  _113
REMARK   48  A    between atoms: _112  and  _115
REMARK   49  A    between atoms: _118  and  _120
REMARK   50  A    between atoms: _120  and  _121
REMARK   51  A    between atoms: _120  and  _123
REMARK   52  A    between atoms: _123  and  _124
REMARK   53  A    between atoms: _127  and  _129
REMARK   54  A    between atoms: _129  and  _130
REMARK   55  A    between atoms: _129  and  _132
REMARK   56  A    between atoms: _132  and  _133
REMARK   57  A    between atoms: _133  and  _134
REMARK   58  A    between atoms: _137  and  _139
REMARK   59  A    between atoms: _139  and  _140
REMARK   60  A    between atoms: _139  and  _142
REMARK   61  A    between atoms: _142  and  _143
REMARK   62  A    between atoms: _146  and  _148
REMARK   63  A    between atoms: _148  and  _149
REMARK   64  A    between atoms: _148  and  _151
REMARK   65  A    between atoms: _151  and  _152
REMARK   66  A    between atoms: _155  and  _157
REMARK   67  A    between atoms: _157  and  _158
REMARK   68  A    between atoms: _157  and  _160
REMARK   69  A    between atoms: _160  and  _161
REMARK   70  A    between atoms: _166  and  _168
REMARK   71  A    between atoms: _168  and  _169
REMARK   72  A    between atoms: _172  and  _174
REMARK   73  A    between atoms: _174  and  _175
REMARK   74  A    between atoms: _174  and  _177
REMARK   75  A    between atoms: _177  and  _178
REMARK   76  A    between atoms: _181  and  _183
REMARK   77  A    between atoms: _183  and  _184
REMARK   78  A    between atoms: _183  and  _186
REMARK   79  A    between atoms: _189  and  _191
REMARK   80  A    between atoms: _191  and  _192
REMARK   81  A    between atoms: _191  and  _194
REMARK   82  A    between atoms: _194  and  _195
REMARK   83  A    between atoms: _195  and  _196
REMARK   84  A    between atoms: _196  and  _197
REMARK   85  A    between atoms: _206  and  _208
REMARK   86  A    between atoms: _208  and  _209
REMARK   87  A    between atoms: _208  and  _211
REMARK   88  A    between atoms: _211  and  _212
REMARK   89  A    between atoms: _215  and  _217
REMARK   90  A    between atoms: _217  and  _218
REMARK   91  A    between atoms: _217  and  _220
REMARK   92  A    between atoms: _220  and  _221
REMARK   93  A    between atoms: _224  and  _226
REMARK   94  A    between atoms: _226  and  _227
REMARK   95  A    between atoms: _226  and  _229
REMARK   96  A    between atoms: _229  and  _230
REMARK   97  A    between atoms: _230  and  _231
REMARK   98  A    between atoms: _236  and  _238
REMARK   99  A    between atoms: _238  and  _239
REMARK  100  A    between atoms: _238  and  _241
REMARK  101  A    between atoms: _244  and  _246
REMARK  102  A    between atoms: _246  and  _247
REMARK  103  A    between atoms: _246  and  _249
REMARK  104  A    between atoms: _249  and  _250
REMARK  105  A    between atoms: _253  and  _255
REMARK  106  A    between atoms: _255  and  _256
REMARK  107  A    between atoms: _255  and  _258
REMARK  108  A    between atoms: _258  and  _259
REMARK  109  A    between atoms: _259  and  _260
REMARK  110  A    between atoms: _263  and  _265
REMARK  111  A    between atoms: _265  and  _266
REMARK  112  A    between atoms: _265  and  _268
REMARK  113  A    between atoms: _268  and  _269
REMARK  114  A    between atoms: _272  and  _274
REMARK  115  A    between atoms: _274  and  _275
REMARK  116  A    between atoms: _274  and  _277
REMARK  117  A    between atoms: _277  and  _278
REMARK  118  A    between atoms: _281  and  _283
REMARK  119  A    between atoms: _283  and  _284
REMARK  120  A    between atoms: _283  and  _286
REMARK  121  A    between atoms: _286  and  _287
REMARK  122  A    between atoms: _292  and  _294
REMARK  123  A    between atoms: _294  and  _295
REMARK  124  A    between atoms: _298  and  _300
REMARK  125  A    between atoms: _300  and  _301
REMARK  126  A    between atoms: _300  and  _303
REMARK  127  A    between atoms: _303  and  _304
REMARK  128  A    between atoms: _307  and  _309
REMARK  129  A    between atoms: _309  and  _310
REMARK  130  A    between atoms: _309  and  _312
REMARK  131  A    between atoms: _315  and  _317
REMARK  132  A    between atoms: _317  and  _318
REMARK  133  A    between atoms: _317  and  _320
REMARK  134  A    between atoms: _320  and  _321
REMARK  135  A    between atoms: _321  and  _322
REMARK  136  A    between atoms: _322  and  _323
REMARK  137  A    between atoms: _332  and  _334
REMARK  138  A    between atoms: _334  and  _335
REMARK  139  A    between atoms: _334  and  _337
REMARK  140  A    between atoms: _337  and  _338
REMARK  141  A    between atoms: _341  and  _343
REMARK  142  A    between atoms: _343  and  _344
REMARK  143  A    between atoms: _343  and  _346
REMARK  144  A    between atoms: _346  and  _347
REMARK  145  A    between atoms: _350  and  _352
REMARK  146  A    between atoms: _352  and  _353
REMARK  147  A    between atoms: _352  and  _355
REMARK  148  A    between atoms: _355  and  _356
REMARK  149  A    between atoms: _356  and  _357
REMARK  150  A    between atoms: _357  and  _358
REMARK  151  A    between atoms: _367  and  _369
REMARK  152  A    between atoms: _369  and  _370
REMARK  153  A    between atoms: _369  and  _372
REMARK  154  A    between atoms: _372  and  _373
REMARK  155  A    between atoms: _373  and  _374
REMARK  156  A    between atoms: _379  and  _381
REMARK  157  A    between atoms: _381  and  _382
REMARK  158  A    between atoms: _381  and  _384
REMARK  159  A    between atoms: _387  and  _389
REMARK  160  A    between atoms: _389  and  _390
REMARK  161  A    between atoms: _389  and  _392
REMARK  162  A    between atoms: _392  and  _393
REMARK  163  A    between atoms: _396  and  _398
REMARK  164  A    between atoms: _398  and  _399
REMARK  165  A    between atoms: _398  and  _401
REMARK  166  A    between atoms: _401  and  _402
REMARK  167  A    between atoms: _402  and  _403
REMARK  168  A    between atoms: _406  and  _408
REMARK  169  A    between atoms: _408  and  _409
REMARK  170  A    between atoms: _408  and  _411
REMARK  171  A    between atoms: _411  and  _412
REMARK  172  A    between atoms: _415  and  _417
REMARK  173  A    between atoms: _417  and  _418
REMARK  174  A    between atoms: _417  and  _420
REMARK  175  A    between atoms: _420  and  _421
REMARK  176  A    between atoms: _424  and  _426
REMARK  177  A    between atoms: _426  and  _427
REMARK  178  A    between atoms: _426  and  _429
REMARK  179  A    between atoms: _429  and  _430
REMARK  180  A    between atoms: _435  and  _437
REMARK  181  A    between atoms: _437  and  _438
REMARK  182  A    between atoms: _441  and  _443
REMARK  183  A    between atoms: _443  and  _444
REMARK  184  A    between atoms: _443  and  _446
REMARK  185  A    between atoms: _446  and  _447
REMARK  186  A    between atoms: _450  and  _452
REMARK  187  A    between atoms: _452  and  _453
REMARK  188  A    between atoms: _452  and  _455
REMARK  189  A    between atoms: _458  and  _460
REMARK  190  A    between atoms: _460  and  _461
REMARK  191  A    between atoms: _460  and  _463
REMARK  192  A    between atoms: _463  and  _464
REMARK  193  A    between atoms: _464  and  _465
REMARK  194  A    between atoms: _465  and  _466
REMARK  195  A    between atoms: _475  and  _477
REMARK  196  A    between atoms: _477  and  _478
REMARK  197  A    between atoms: _477  and  _480
REMARK  198  A    between atoms: _480  and  _481
REMARK  199  A    between atoms: _484  and  _486
REMARK  200  A    between atoms: _486  and  _487
REMARK  201  A    between atoms: _486  and  _489
REMARK  202  A    between atoms: _489  and  _490
REMARK  203  A    between atoms: _493  and  _495
REMARK  204  A    between atoms: _495  and  _496
REMARK  205  A    between atoms: _495  and  _498
REMARK  206  A    between atoms: _498  and  _499
REMARK  207  A    between atoms: _499  and  _500
REMARK  208  A    between atoms: _505  and  _507
REMARK  209  A    between atoms: _507  and  _508
REMARK  210  A    between atoms: _507  and  _510
REMARK  211  A    between atoms: _513  and  _515
REMARK  212  A    between atoms: _515  and  _516
REMARK  213  A    between atoms: _515  and  _518
REMARK  214  A    between atoms: _518  and  _519
REMARK  215  A    between atoms: _522  and  _524
REMARK  216  A    between atoms: _524  and  _525
REMARK  217  A    between atoms: _524  and  _527
REMARK  218  A    between atoms: _527  and  _528
REMARK  219  A    between atoms: _528  and  _529
REMARK  220  A    between atoms: _532  and  _534
REMARK  221  A    between atoms: _534  and  _535
REMARK  222  A    between atoms: _534  and  _537
REMARK  223  A    between atoms: _537  and  _538
REMARK  224  A    between atoms: _541  and  _543
REMARK  225  A    between atoms: _543  and  _544
REMARK  226  A    between atoms: _543  and  _546
REMARK  227  A    between atoms: _546  and  _547
REMARK  228  A    between atoms: _550  and  _552
REMARK  229  A    between atoms: _552  and  _553
REMARK  230  A    between atoms: _552  and  _555
REMARK  231  A    between atoms: _555  and  _556
REMARK  232  A    between atoms: _561  and  _563
REMARK  233  A    between atoms: _563  and  _564
REMARK  234  A    between atoms: _567  and  _569
REMARK  235  A    between atoms: _569  and  _570
REMARK  236  A    between atoms: _569  and  _572
REMARK  237  A    between atoms: _572  and  _573
REMARK  238  A    between atoms: _576  and  _578
REMARK  239  A    between atoms: _578  and  _579
REMARK  240  A    between atoms: _578  and  _581
REMARK  241  A    between atoms: _584  and  _586
REMARK  242  A    between atoms: _586  and  _587
REMARK  243  A    between atoms: _586  and  _589
REMARK  244  A    between atoms: _589  and  _590
REMARK  245  A    between atoms: _590  and  _591
REMARK  246  A    between atoms: _591  and  _592
REMARK  247  A    between atoms: _601  and  _603
REMARK  248  A    between atoms: _603  and  _604
REMARK  249  A    between atoms: _603  and  _606
REMARK  250  A    between atoms: _606  and  _607
REMARK  251  A    between atoms: _610  and  _612
REMARK  252  A    between atoms: _612  and  _613
REMARK  253  A    between atoms: _612  and  _615
REMARK  254  A    between atoms: _615  and  _616
REMARK  255  A    between atoms: _619  and  _621
REMARK  256  A    between atoms: _621  and  _622
REMARK  257  A    between atoms: _621  and  _624
REMARK  258  A    between atoms: _624  and  _625
REMARK  259  A    between atoms: _625  and  _626
REMARK  260  A    between atoms: _631  and  _633
REMARK  261  A    between atoms: _633  and  _634
REMARK  262  A    between atoms: _633  and  _636
REMARK  263  A    between atoms: _639  and  _641
REMARK  264  A    between atoms: _641  and  _642
REMARK  265  A    between atoms: _641  and  _644
REMARK  266  A    between atoms: _644  and  _645
REMARK                            x       y       z     vdW  Elec       q    Type
REMARK                         _______ _______ _______ _____ _____    ______ ____
ROOT
ATOM      1  C   GLU A   1      10.120   5.826  -7.419  0.00  0.00    +0.238 C 
ATOM      2  O   GLU A   1       9.346   5.568  -6.492  0.00  0.00    -0.274 OA
ATOM      3  N   LEU A   2      11.401   6.129  -7.227  0.00  0.00    -0.298 N 
ATOM      4  H   LEU A   2      12.007   6.320  -8.050  0.00  0.00    +0.150 HD
ENDROOT
BRANCH   1   5
ATOM      5  CA  GLU A   1       9.635   5.793  -8.864  0.00  0.00    +0.145 C 
BRANCH   5   6
ATOM      6  N   GLU A   1      10.338   6.763  -9.714  0.00  0.00    -0.238 NA
ATOM      7  H   GLU A   1      10.964   6.421 -10.471  0.00  0.00    +0.142 HD
ENDBRANCH   5   6
BRANCH   5   8
ATOM      8  CB  GLU A   1       9.797   4.369  -9.400  0.00  0.00    +0.038 C 
BRANCH   8   9
ATOM      9  CG  GLU A   1       9.186   4.122 -10.778  0.00  0.00    +0.116 C 
BRANCH   9  10
ATOM     10  CD  GLU A   1       7.679   4.308 -10.808  0.00  0.00    +0.365 C 
ATOM     11  OE2 GLU A   1       6.975   3.678  -9.983  0.00  0.00    -0.246 OA
ATOM     12  OE1 GLU A   1       7.197   5.077 -11.665  0.00  0.00    -0.246 OA
ENDBRANCH   9  10
ENDBRANCH   8   9
ENDBRANCH   5   8
ENDBRANCH   1   5
BRANCH   3  13
ATOM     13  CA  LEU A   2      11.976   6.200  -5.884  0.00  0.00    +0.137 C 
BRANCH  13  14
ATOM     14  C   LEU A   2      11.474   7.458  -5.177  0.00  0.00    +0.227 C 
ATOM     15  O   LEU A   2      11.200   7.433  -3.982  0.00  0.00    -0.286 OA
ENDBRANCH  13  14
BRANCH  13  16
ATOM     16  CB  LEU A   2      13.515   6.213  -5.946  0.00  0.00    +0.028 C 
BRANCH  16  17
ATOM     17  CG  LEU A   2      14.257   4.923  -6.310  0.00  0.00    +0.002 C 
ATOM     18  CD2 LEU A   2      14.114   3.917  -5.181  0.00  0.00    +0.000 C 
ATOM     19  CD1 LEU A   2      15.727   5.222  -6.559  0.00  0.00    +0.000 C 
ENDBRANCH  16  17
ENDBRANCH  13  16
ENDBRANCH   3  13
TORSDOF 9
REMARK  Name = ../refined-set-2016/3v2q/3v2q_pocket.pdb
REMARK  266 active torsions:
REMARK  status: ('A' for Active; 'I' for Inactive)
REMARK    1  A    between atoms: _1  and  _3
REMARK    2  A    between atoms: _3  and  _4
REMARK    3  A    between atoms: _3  and  _6
REMARK    4  A    between atoms: _6  and  _7
REMARK    5  A    between atoms: _7  and  _8
REMARK    6  A    between atoms: _11  and  _13
REMARK    7  A    between atoms: _13  and  _14
REMARK    8  A    between atoms: _13  and  _16
REMARK    9  A    between atoms: _16  and  _17
REMARK   10  A    between atoms: _20  and  _22
REMARK   11  A    between atoms: _22  and  _23
REMARK   12  A    between atoms: _22  and  _25
REMARK   13  A    between atoms: _25  and  _26
REMARK   14  A    between atoms: _29  and  _31
REMARK   15  A    between atoms: _31  and  _32
REMARK   16  A    between atoms: _31  and  _34
REMARK   17  A    between atoms: _34  and  _35
REMARK   18  A    between atoms: _40  and  _42
REMARK   19  A    between atoms: _42  and  _43
REMARK   20  A    between atoms: _46  and  _48
REMARK   21  A    between atoms: _48  and  _49
REMARK   22  A    between atoms: _48  and  _51
REMARK   23  A    between atoms: _51  and  _52
REMARK   24  A    between atoms: _55  and  _57
REMARK   25  A    between atoms: _57  and  _58
REMARK   26  A    between atoms: _57  and  _60
REMARK   27  A    between atoms: _63  and  _65
REMARK   28  A    between atoms: _65  and  _66
REMARK   29  A    between atoms: _65  and  _68
REMARK   30  A    between atoms: _68  and  _69
REMARK   31  A    between atoms: _69  and  _70
REMARK   32  A    between atoms: _70  and  _71
REMARK   33  A    between atoms: _80  and  _82
REMARK   34  A    between atoms: _82  and  _83
REMARK   35  A    between atoms: _82  and  _85
REMARK   36  A    between atoms: _85  and  _86
REMARK   37  A    between atoms: _89  and  _91
REMARK   38  A    between atoms: _91  and  _92
REMARK   39  A    between atoms: _91  and  _94
REMARK   40  A    between atoms: _94  and  _95
REMARK   41  A    between atoms: _98  and  _100
REMARK   42  A    between atoms: _100  and  _101
REMARK   43  A    between atoms: _100  and  _103
REMARK   44  A    between atoms: _103  and  _104
REMARK   45  A    between atoms: _104  and  _105
REMARK   46  A    between atoms: _110  and  _112
REMARK   47  A    between atoms: _112  and  _113
REMARK   48  A    between atoms: _112  and  _115
REMARK   49  A    between atoms: _118  and  _120
REMARK   50  A    between atoms: _120  and  _121
REMARK   51  A    between atoms: _120  and  _123
REMARK   52  A    between atoms: _123  and  _124
REMARK   53  A    between atoms: _127  and  _129
REMARK   54  A    between atoms: _129  and  _130
REMARK   55  A    between atoms: _129  and  _132
REMARK   56  A    between atoms: _132  and  _133
REMARK   57  A    between atoms: _133  and  _134
REMARK   58  A    between atoms: _137  and  _139
REMARK   59  A    between atoms: _139  and  _140
REMARK   60  A    between atoms: _139  and  _142
REMARK   61  A    between atoms: _142  and  _143
REMARK   62  A    between atoms: _146  and  _148
REMARK   63  A    between atoms: _148  and  _149
REMARK   64  A    between atoms: _148  and  _151
REMARK   65  A    between atoms: _151  and  _152
REMARK   66  A    between atoms: _155  and  _157
REMARK   67  A    between atoms: _157  and  _158
REMARK   68  A    between atoms: _157  and  _160
REMARK   69  A    between atoms: _160  and  _161
REMARK   70  A    between atoms: _166  and  _168
REMARK   71  A    between atoms: _168  and  _169
REMARK   72  A    between atoms: _172  and  _174
REMARK   73  A    between atoms: _174  and  _175
REMARK   74  A    between atoms: _174  and  _177
REMARK   75  A    between atoms: _177  and  _178
REMARK   76  A    between atoms: _181  and  _183
REMARK   77  A    between atoms: _183  and  _184
REMARK   78  A    between atoms: _183  and  _186
REMARK   79  A    between atoms: _189  and  _191
REMARK   80  A    between atoms: _191  and  _192
REMARK   81  A    between atoms: _191  and  _194
REMARK   82  A    between atoms: _194  and  _195
REMARK   83  A    between atoms: _195  and  _196
REMARK   84  A    between atoms: _196  and  _197
REMARK   85  A    between atoms: _206  and  _208
REMARK   86  A    between atoms: _208  and  _209
REMARK   87  A    between atoms: _208  and  _211
REMARK   88  A    between atoms: _211  and  _212
REMARK   89  A    between atoms: _215  and  _217
REMARK   90  A    between atoms: _217  and  _218
REMARK   91  A    between atoms: _217  and  _220
REMARK   92  A    between atoms: _220  and  _221
REMARK   93  A    between atoms: _224  and  _226
REMARK   94  A    between atoms: _226  and  _227
REMARK   95  A    between atoms: _226  and  _229
REMARK   96  A    between atoms: _229  and  _230
REMARK   97  A    between atoms: _230  and  _231
REMARK   98  A    between atoms: _236  and  _238
REMARK   99  A    between atoms: _238  and  _239
REMARK  100  A    between atoms: _238  and  _241
REMARK  101  A    between atoms: _244  and  _246
REMARK  102  A    between atoms: _246  and  _247
REMARK  103  A    between atoms: _246  and  _249
REMARK  104  A    between atoms: _249  and  _250
REMARK  105  A    between atoms: _253  and  _255
REMARK  106  A    between atoms: _255  and  _256
REMARK  107  A    between atoms: _255  and  _258
REMARK  108  A    between atoms: _258  and  _259
REMARK  109  A    between atoms: _259  and  _260
REMARK  110  A    between atoms: _263  and  _265
REMARK  111  A    between atoms: _265  and  _266
REMARK  112  A    between atoms: _265  and  _268
REMARK  113  A    between atoms: _268  and  _269
REMARK  114  A    between atoms: _272  and  _274
REMARK  115  A    between atoms: _274  and  _275
REMARK  116  A    between atoms: _274  and  _277
REMARK  117  A    between atoms: _277  and  _278
REMARK  118  A    between atoms: _281  and  _283
REMARK  119  A    between atoms: _283  and  _284
REMARK  120  A    between atoms: _283  and  _286
REMARK  121  A    between atoms: _286  and  _287
REMARK  122  A    between atoms: _292  and  _294
REMARK  123  A    between atoms: _294  and  _295
REMARK  124  A    between atoms: _298  and  _300
REMARK  125  A    between atoms: _300  and  _301
REMARK  126  A    between atoms: _300  and  _303
REMARK  127  A    between atoms: _303  and  _304
REMARK  128  A    between atoms: _307  and  _309
REMARK  129  A    between atoms: _309  and  _310
REMARK  130  A    between atoms: _309  and  _312
REMARK  131  A    between atoms: _315  and  _317
REMARK  132  A    between atoms: _317  and  _318
REMARK  133  A    between atoms: _317  and  _320
REMARK  134  A    between atoms: _320  and  _321
REMARK  135  A    between atoms: _321  and  _322
REMARK  136  A    between atoms: _322  and  _323
REMARK  137  A    between atoms: _332  and  _334
REMARK  138  A    between atoms: _334  and  _335
REMARK  139  A    between atoms: _334  and  _337
REMARK  140  A    between atoms: _337  and  _338
REMARK  141  A    between atoms: _341  and  _343
REMARK  142  A    between atoms: _343  and  _344
REMARK  143  A    between atoms: _343  and  _346
REMARK  144  A    between atoms: _346  and  _347
REMARK  145  A    between atoms: _350  and  _352
REMARK  146  A    between atoms: _352  and  _353
REMARK  147  A    between atoms: _352  and  _355
REMARK  148  A    between atoms: _355  and  _356
REMARK  149  A    between atoms: _356  and  _357
REMARK  150  A    between atoms: _357  and  _358
REMARK  151  A    between atoms: _367  and  _369
REMARK  152  A    between atoms: _369  and  _370
REMARK  153  A    between atoms: _369  and  _372
REMARK  154  A    between atoms: _372  and  _373
REMARK  155  A    between atoms: _373  and  _374
REMARK  156  A    between atoms: _379  and  _381
REMARK  157  A    between atoms: _381  and  _382
REMARK  158  A    between atoms: _381  and  _384
REMARK  159  A    between atoms: _387  and  _389
REMARK  160  A    between atoms: _389  and  _390
REMARK  161  A    between atoms: _389  and  _392
REMARK  162  A    between atoms: _392  and  _393
REMARK  163  A    between atoms: _396  and  _398
REMARK  164  A    between atoms: _398  and  _399
REMARK  165  A    between atoms: _398  and  _401
REMARK  166  A    between atoms: _401  and  _402
REMARK  167  A    between atoms: _402  and  _403
REMARK  168  A    between atoms: _406  and  _408
REMARK  169  A    between atoms: _408  and  _409
REMARK  170  A    between atoms: _408  and  _411
REMARK  171  A    between atoms: _411  and  _412
REMARK  172  A    between atoms: _415  and  _417
REMARK  173  A    between atoms: _417  and  _418
REMARK  174  A    between atoms: _417  and  _420
REMARK  175  A    between atoms: _420  and  _421
REMARK  176  A    between atoms: _424  and  _426
REMARK  177  A    between atoms: _426  and  _427
REMARK  178  A    between atoms: _426  and  _429
REMARK  179  A    between atoms: _429  and  _430
REMARK  180  A    between atoms: _435  and  _437
REMARK  181  A    between atoms: _437  and  _438
REMARK  182  A    between atoms: _441  and  _443
REMARK  183  A    between atoms: _443  and  _444
REMARK  184  A    between atoms: _443  and  _446
REMARK  185  A    between atoms: _446  and  _447
REMARK  186  A    between atoms: _450  and  _452
REMARK  187  A    between atoms: _452  and  _453
REMARK  188  A    between atoms: _452  and  _455
REMARK  189  A    between atoms: _458  and  _460
REMARK  190  A    between atoms: _460  and  _461
REMARK  191  A    between atoms: _460  and  _463
REMARK  192  A    between atoms: _463  and  _464
REMARK  193  A    between atoms: _464  and  _465
REMARK  194  A    between atoms: _465  and  _466
REMARK  195  A    between atoms: _475  and  _477
REMARK  196  A    between atoms: _477  and  _478
REMARK  197  A    between atoms: _477  and  _480
REMARK  198  A    between atoms: _480  and  _481
REMARK  199  A    between atoms: _484  and  _486
REMARK  200  A    between atoms: _486  and  _487
REMARK  201  A    between atoms: _486  and  _489
REMARK  202  A    between atoms: _489  and  _490
REMARK  203  A    between atoms: _493  and  _495
REMARK  204  A    between atoms: _495  and  _496
REMARK  205  A    between atoms: _495  and  _498
REMARK  206  A    between atoms: _498  and  _499
REMARK  207  A    between atoms: _499  and  _500
REMARK  208  A    between atoms: _505  and  _507
REMARK  209  A    between atoms: _507  and  _508
REMARK  210  A    between atoms: _507  and  _510
REMARK  211  A    between atoms: _513  and  _515
REMARK  212  A    between atoms: _515  and  _516
REMARK  213  A    between atoms: _515  and  _518
REMARK  214  A    between atoms: _518  and  _519
REMARK  215  A    between atoms: _522  and  _524
REMARK  216  A    between atoms: _524  and  _525
REMARK  217  A    between atoms: _524  and  _527
REMARK  218  A    between atoms: _527  and  _528
REMARK  219  A    between atoms: _528  and  _529
REMARK  220  A    between atoms: _532  and  _534
REMARK  221  A    between atoms: _534  and  _535
REMARK  222  A    between atoms: _534  and  _537
REMARK  223  A    between atoms: _537  and  _538
REMARK  224  A    between atoms: _541  and  _543
REMARK  225  A    between atoms: _543  and  _544
REMARK  226  A    between atoms: _543  and  _546
REMARK  227  A    between atoms: _546  and  _547
REMARK  228  A    between atoms: _550  and  _552
REMARK  229  A    between atoms: _552  and  _553
REMARK  230  A    between atoms: _552  and  _555
REMARK  231  A    between atoms: _555  and  _556
REMARK  232  A    between atoms: _561  and  _563
REMARK  233  A    between atoms: _563  and  _564
REMARK  234  A    between atoms: _567  and  _569
REMARK  235  A    between atoms: _569  and  _570
REMARK  236  A    between atoms: _569  and  _572
REMARK  237  A    between atoms: _572  and  _573
REMARK  238  A    between atoms: _576  and  _578
REMARK  239  A    between atoms: _578  and  _579
REMARK  240  A    between atoms: _578  and  _581
REMARK  241  A    between atoms: _584  and  _586
REMARK  242  A    between atoms: _586  and  _587
REMARK  243  A    between atoms: _586  and  _589
REMARK  244  A    between atoms: _589  and  _590
REMARK  245  A    between atoms: _590  and  _591
REMARK  246  A    between atoms: _591  and  _592
REMARK  247  A    between atoms: _601  and  _603
REMARK  248  A    between atoms: _603  and  _604
REMARK  249  A    between atoms: _603  and  _606
REMARK  250  A    between atoms: _606  and  _607
REMARK  251  A    between atoms: _610  and  _612
REMARK  252  A    between atoms: _612  and  _613
REMARK  253  A    between atoms: _612  and  _615
REMARK  254  A    between atoms: _615  and  _616
REMARK  255  A    between atoms: _619  and  _621
REMARK  256  A    between atoms: _621  and  _622
REMARK  257  A    between atoms: _621  and  _624
REMARK  258  A    between atoms: _624  and  _625
REMARK  259  A    between atoms: _625  and  _626
REMARK  260  A    between atoms: _631  and  _633
REMARK  261  A    between atoms: _633  and  _634
REMARK  262  A    between atoms: _633  and  _636
REMARK  263  A    between atoms: _639  and  _641
REMARK  264  A    between atoms: _641  and  _642
REMARK  265  A    between atoms: _641  and  _644
REMARK  266  A    between atoms: _644  and  _645
REMARK                            x       y       z     vdW  Elec       q    Type
REMARK                         _______ _______ _______ _____ _____    ______ ____
ROOT
ATOM      1  C   THR A   1       8.471   6.606  -1.684  0.00  0.00    +0.241 C 
ATOM      2  O   THR A   1       7.742   6.418  -0.712  0.00  0.00    -0.274 OA
ATOM      3  N   ASN A   2       9.492   7.456  -1.666  0.00  0.00    -0.298 N 
ATOM      4  H   ASN A   2      10.086   7.569  -2.512  0.00  0.00    +0.150 HD
ENDROOT
BRANCH   1   5
ATOM      5  CA  THR A   1       8.253   5.840  -2.982  0.00  0.00    +0.172 C 
BRANCH   5   6
ATOM      6  N   THR A   1       8.197   6.750  -4.118  0.00  0.00    -0.236 NA
ATOM      7  H   THR A   1       8.948   6.706  -4.837  0.00  0.00    +0.142 HD
ENDBRANCH   5   6
BRANCH   5   8
ATOM      8  CB  THR A   1       9.413   4.832  -3.116  0.00  0.00    +0.135 C 
ATOM      9  CG2 THR A   1       9.624   4.096  -1.803  0.00  0.00    +0.034 C 
BRANCH   8  10
ATOM     10  OG1 THR A   1       9.123   3.899  -4.160  0.00  0.00    -0.383 OA
ATOM     11  HG1 THR A   1       9.011   4.386  -5.014  0.00  0.00    +0.210 HD
ENDBRANCH   8  10
ENDBRANCH   5   8
ENDBRANCH   1   5
BRANCH   3  12
ATOM     12  CA  ASN A   2       9.784   8.230  -0.469  0.00  0.00    +0.146 C 
BRANCH  12  13
ATOM     13  C   ASN A   2       8.638   9.143  -0.065  0.00  0.00    +0.227 C 
ATOM     14  O   ASN A   2       8.391   9.316   1.121  0.00  0.00    -0.286 OA
ENDBRANCH  12  13
BRANCH  12  15
ATOM     15  CB  ASN A   2      11.073   9.039  -0.640  0.00  0.00    +0.112 C 
BRANCH  15  16
ATOM     16  CG  ASN A   2      12.318   8.199  -0.398  0.00  0.00    +0.222 C 
ATOM     17  OD1 ASN A   2      12.328   7.360   0.494  0.00  0.00    -0.275 OA
ATOM     18  ND2 ASN A   2      13.372   8.425  -1.182  0.00  0.00    -0.329 N 
ATOM     19 HD21 ASN A   2      14.247   7.879  -1.048  0.00  0.00    +0.145 HD
ATOM     20 HD22 ASN A   2      13.320   9.148  -1.928  0.00  0.00    +0.145 HD
ENDBRANCH  15  16
ENDBRANCH  12  15
ENDBRANCH   3  12
TORSDOF 8
REMARK  Name = ../refined-set-2016/3v2q/3v2q_pocket.pdb
REMARK  266 active torsions:
REMARK  status: ('A' for Active; 'I' for Inactive)
REMARK    1  A    between atoms: _1  and  _3
REMARK    2  A    between atoms: _3  and  _4
REMARK    3  A    between atoms: _3  and  _6
REMARK    4  A    between atoms: _6  and  _7
REMARK    5  A    between atoms: _7  and  _8
REMARK    6  A    between atoms: _11  and  _13
REMARK    7  A    between atoms: _13  and  _14
REMARK    8  A    between atoms: _13  and  _16
REMARK    9  A    between atoms: _16  and  _17
REMARK   10  A    between atoms: _20  and  _22
REMARK   11  A    between atoms: _22  and  _23
REMARK   12  A    between atoms: _22  and  _25
REMARK   13  A    between atoms: _25  and  _26
REMARK   14  A    between atoms: _29  and  _31
REMARK   15  A    between atoms: _31  and  _32
REMARK   16  A    between atoms: _31  and  _34
REMARK   17  A    between atoms: _34  and  _35
REMARK   18  A    between atoms: _40  and  _42
REMARK   19  A    between atoms: _42  and  _43
REMARK   20  A    between atoms: _46  and  _48
REMARK   21  A    between atoms: _48  and  _49
REMARK   22  A    between atoms: _48  and  _51
REMARK   23  A    between atoms: _51  and  _52
REMARK   24  A    between atoms: _55  and  _57
REMARK   25  A    between atoms: _57  and  _58
REMARK   26  A    between atoms: _57  and  _60
REMARK   27  A    between atoms: _63  and  _65
REMARK   28  A    between atoms: _65  and  _66
REMARK   29  A    between atoms: _65  and  _68
REMARK   30  A    between atoms: _68  and  _69
REMARK   31  A    between atoms: _69  and  _70
REMARK   32  A    between atoms: _70  and  _71
REMARK   33  A    between atoms: _80  and  _82
REMARK   34  A    between atoms: _82  and  _83
REMARK   35  A    between atoms: _82  and  _85
REMARK   36  A    between atoms: _85  and  _86
REMARK   37  A    between atoms: _89  and  _91
REMARK   38  A    between atoms: _91  and  _92
REMARK   39  A    between atoms: _91  and  _94
REMARK   40  A    between atoms: _94  and  _95
REMARK   41  A    between atoms: _98  and  _100
REMARK   42  A    between atoms: _100  and  _101
REMARK   43  A    between atoms: _100  and  _103
REMARK   44  A    between atoms: _103  and  _104
REMARK   45  A    between atoms: _104  and  _105
REMARK   46  A    between atoms: _110  and  _112
REMARK   47  A    between atoms: _112  and  _113
REMARK   48  A    between atoms: _112  and  _115
REMARK   49  A    between atoms: _118  and  _120
REMARK   50  A    between atoms: _120  and  _121
REMARK   51  A    between atoms: _120  and  _123
REMARK   52  A    between atoms: _123  and  _124
REMARK   53  A    between atoms: _127  and  _129
REMARK   54  A    between atoms: _129  and  _130
REMARK   55  A    between atoms: _129  and  _132
REMARK   56  A    between atoms: _132  and  _133
REMARK   57  A    between atoms: _133  and  _134
REMARK   58  A    between atoms: _137  and  _139
REMARK   59  A    between atoms: _139  and  _140
REMARK   60  A    between atoms: _139  and  _142
REMARK   61  A    between atoms: _142  and  _143
REMARK   62  A    between atoms: _146  and  _148
REMARK   63  A    between atoms: _148  and  _149
REMARK   64  A    between atoms: _148  and  _151
REMARK   65  A    between atoms: _151  and  _152
REMARK   66  A    between atoms: _155  and  _157
REMARK   67  A    between atoms: _157  and  _158
REMARK   68  A    between atoms: _157  and  _160
REMARK   69  A    between atoms: _160  and  _161
REMARK   70  A    between atoms: _166  and  _168
REMARK   71  A    between atoms: _168  and  _169
REMARK   72  A    between atoms: _172  and  _174
REMARK   73  A    between atoms: _174  and  _175
REMARK   74  A    between atoms: _174  and  _177
REMARK   75  A    between atoms: _177  and  _178
REMARK   76  A    between atoms: _181  and  _183
REMARK   77  A    between atoms: _183  and  _184
REMARK   78  A    between atoms: _183  and  _186
REMARK   79  A    between atoms: _189  and  _191
REMARK   80  A    between atoms: _191  and  _192
REMARK   81  A    between atoms: _191  and  _194
REMARK   82  A    between atoms: _194  and  _195
REMARK   83  A    between atoms: _195  and  _196
REMARK   84  A    between atoms: _196  and  _197
REMARK   85  A    between atoms: _206  and  _208
REMARK   86  A    between atoms: _208  and  _209
REMARK   87  A    between atoms: _208  and  _211
REMARK   88  A    between atoms: _211  and  _212
REMARK   89  A    between atoms: _215  and  _217
REMARK   90  A    between atoms: _217  and  _218
REMARK   91  A    between atoms: _217  and  _220
REMARK   92  A    between atoms: _220  and  _221
REMARK   93  A    between atoms: _224  and  _226
REMARK   94  A    between atoms: _226  and  _227
REMARK   95  A    between atoms: _226  and  _229
REMARK   96  A    between atoms: _229  and  _230
REMARK   97  A    between atoms: _230  and  _231
REMARK   98  A    between atoms: _236  and  _238
REMARK   99  A    between atoms: _238  and  _239
REMARK  100  A    between atoms: _238  and  _241
REMARK  101  A    between atoms: _244  and  _246
REMARK  102  A    between atoms: _246  and  _247
REMARK  103  A    between atoms: _246  and  _249
REMARK  104  A    between atoms: _249  and  _250
REMARK  105  A    between atoms: _253  and  _255
REMARK  106  A    between atoms: _255  and  _256
REMARK  107  A    between atoms: _255  and  _258
REMARK  108  A    between atoms: _258  and  _259
REMARK  109  A    between atoms: _259  and  _260
REMARK  110  A    between atoms: _263  and  _265
REMARK  111  A    between atoms: _265  and  _266
REMARK  112  A    between atoms: _265  and  _268
REMARK  113  A    between atoms: _268  and  _269
REMARK  114  A    between atoms: _272  and  _274
REMARK  115  A    between atoms: _274  and  _275
REMARK  116  A    between atoms: _274  and  _277
REMARK  117  A    between atoms: _277  and  _278
REMARK  118  A    between atoms: _281  and  _283
REMARK  119  A    between atoms: _283  and  _284
REMARK  120  A    between atoms: _283  and  _286
REMARK  121  A    between atoms: _286  and  _287
REMARK  122  A    between atoms: _292  and  _294
REMARK  123  A    between atoms: _294  and  _295
REMARK  124  A    between atoms: _298  and  _300
REMARK  125  A    between atoms: _300  and  _301
REMARK  126  A    between atoms: _300  and  _303
REMARK  127  A    between atoms: _303  and  _304
REMARK  128  A    between atoms: _307  and  _309
REMARK  129  A    between atoms: _309  and  _310
REMARK  130  A    between atoms: _309  and  _312
REMARK  131  A    between atoms: _315  and  _317
REMARK  132  A    between atoms: _317  and  _318
REMARK  133  A    between atoms: _317  and  _320
REMARK  134  A    between atoms: _320  and  _321
REMARK  135  A    between atoms: _321  and  _322
REMARK  136  A    between atoms: _322  and  _323
REMARK  137  A    between atoms: _332  and  _334
REMARK  138  A    between atoms: _334  and  _335
REMARK  139  A    between atoms: _334  and  _337
REMARK  140  A    between atoms: _337  and  _338
REMARK  141  A    between atoms: _341  and  _343
REMARK  142  A    between atoms: _343  and  _344
REMARK  143  A    between atoms: _343  and  _346
REMARK  144  A    between atoms: _346  and  _347
REMARK  145  A    between atoms: _350  and  _352
REMARK  146  A    between atoms: _352  and  _353
REMARK  147  A    between atoms: _352  and  _355
REMARK  148  A    between atoms: _355  and  _356
REMARK  149  A    between atoms: _356  and  _357
REMARK  150  A    between atoms: _357  and  _358
REMARK  151  A    between atoms: _367  and  _369
REMARK  152  A    between atoms: _369  and  _370
REMARK  153  A    between atoms: _369  and  _372
REMARK  154  A    between atoms: _372  and  _373
REMARK  155  A    between atoms: _373  and  _374
REMARK  156  A    between atoms: _379  and  _381
REMARK  157  A    between atoms: _381  and  _382
REMARK  158  A    between atoms: _381  and  _384
REMARK  159  A    between atoms: _387  and  _389
REMARK  160  A    between atoms: _389  and  _390
REMARK  161  A    between atoms: _389  and  _392
REMARK  162  A    between atoms: _392  and  _393
REMARK  163  A    between atoms: _396  and  _398
REMARK  164  A    between atoms: _398  and  _399
REMARK  165  A    between atoms: _398  and  _401
REMARK  166  A    between atoms: _401  and  _402
REMARK  167  A    between atoms: _402  and  _403
REMARK  168  A    between atoms: _406  and  _408
REMARK  169  A    between atoms: _408  and  _409
REMARK  170  A    between atoms: _408  and  _411
REMARK  171  A    between atoms: _411  and  _412
REMARK  172  A    between atoms: _415  and  _417
REMARK  173  A    between atoms: _417  and  _418
REMARK  174  A    between atoms: _417  and  _420
REMARK  175  A    between atoms: _420  and  _421
REMARK  176  A    between atoms: _424  and  _426
REMARK  177  A    between atoms: _426  and  _427
REMARK  178  A    between atoms: _426  and  _429
REMARK  179  A    between atoms: _429  and  _430
REMARK  180  A    between atoms: _435  and  _437
REMARK  181  A    between atoms: _437  and  _438
REMARK  182  A    between atoms: _441  and  _443
REMARK  183  A    between atoms: _443  and  _444
REMARK  184  A    between atoms: _443  and  _446
REMARK  185  A    between atoms: _446  and  _447
REMARK  186  A    between atoms: _450  and  _452
REMARK  187  A    between atoms: _452  and  _453
REMARK  188  A    between atoms: _452  and  _455
REMARK  189  A    between atoms: _458  and  _460
REMARK  190  A    between atoms: _460  and  _461
REMARK  191  A    between atoms: _460  and  _463
REMARK  192  A    between atoms: _463  and  _464
REMARK  193  A    between atoms: _464  and  _465
REMARK  194  A    between atoms: _465  and  _466
REMARK  195  A    between atoms: _475  and  _477
REMARK  196  A    between atoms: _477  and  _478
REMARK  197  A    between atoms: _477  and  _480
REMARK  198  A    between atoms: _480  and  _481
REMARK  199  A    between atoms: _484  and  _486
REMARK  200  A    between atoms: _486  and  _487
REMARK  201  A    between atoms: _486  and  _489
REMARK  202  A    between atoms: _489  and  _490
REMARK  203  A    between atoms: _493  and  _495
REMARK  204  A    between atoms: _495  and  _496
REMARK  205  A    between atoms: _495  and  _498
REMARK  206  A    between atoms: _498  and  _499
REMARK  207  A    between atoms: _499  and  _500
REMARK  208  A    between atoms: _505  and  _507
REMARK  209  A    between atoms: _507  and  _508
REMARK  210  A    between atoms: _507  and  _510
REMARK  211  A    between atoms: _513  and  _515
REMARK  212  A    between atoms: _515  and  _516
REMARK  213  A    between atoms: _515  and  _518
REMARK  214  A    between atoms: _518  and  _519
REMARK  215  A    between atoms: _522  and  _524
REMARK  216  A    between atoms: _524  and  _525
REMARK  217  A    between atoms: _524  and  _527
REMARK  218  A    between atoms: _527  and  _528
REMARK  219  A    between atoms: _528  and  _529
REMARK  220  A    between atoms: _532  and  _534
REMARK  221  A    between atoms: _534  and  _535
REMARK  222  A    between atoms: _534  and  _537
REMARK  223  A    between atoms: _537  and  _538
REMARK  224  A    between atoms: _541  and  _543
REMARK  225  A    between atoms: _543  and  _544
REMARK  226  A    between atoms: _543  and  _546
REMARK  227  A    between atoms: _546  and  _547
REMARK  228  A    between atoms: _550  and  _552
REMARK  229  A    between atoms: _552  and  _553
REMARK  230  A    between atoms: _552  and  _555
REMARK  231  A    between atoms: _555  and  _556
REMARK  232  A    between atoms: _561  and  _563
REMARK  233  A    between atoms: _563  and  _564
REMARK  234  A    between atoms: _567  and  _569
REMARK  235  A    between atoms: _569  and  _570
REMARK  236  A    between atoms: _569  and  _572
REMARK  237  A    between atoms: _572  and  _573
REMARK  238  A    between atoms: _576  and  _578
REMARK  239  A    between atoms: _578  and  _579
REMARK  240  A    between atoms: _578  and  _581
REMARK  241  A    between atoms: _584  and  _586
REMARK  242  A    between atoms: _586  and  _587
REMARK  243  A    between atoms: _586  and  _589
REMARK  244  A    between atoms: _589  and  _590
REMARK  245  A    between atoms: _590  and  _591
REMARK  246  A    between atoms: _591  and  _592
REMARK  247  A    between atoms: _601  and  _603
REMARK  248  A    between atoms: _603  and  _604
REMARK  249  A    between atoms: _603  and  _606
REMARK  250  A    between atoms: _606  and  _607
REMARK  251  A    between atoms: _610  and  _612
REMARK  252  A    between atoms: _612  and  _613
REMARK  253  A    between atoms: _612  and  _615
REMARK  254  A    between atoms: _615  and  _616
REMARK  255  A    between atoms: _619  and  _621
REMARK  256  A    between atoms: _621  and  _622
REMARK  257  A    between atoms: _621  and  _624
REMARK  258  A    between atoms: _624  and  _625
REMARK  259  A    between atoms: _625  and  _626
REMARK  260  A    between atoms: _631  and  _633
REMARK  261  A    between atoms: _633  and  _634
REMARK  262  A    between atoms: _633  and  _636
REMARK  263  A    between atoms: _639  and  _641
REMARK  264  A    between atoms: _641  and  _642
REMARK  265  A    between atoms: _641  and  _644
REMARK  266  A    between atoms: _644  and  _645
REMARK                            x       y       z     vdW  Elec       q    Type
REMARK                         _______ _______ _______ _____ _____    ______ ____
ROOT
ATOM      1  C   ALA A   1       4.828   7.320   1.418  0.00  0.00    +0.238 C 
ATOM      2  O   ALA A   1       4.031   7.317   2.354  0.00  0.00    -0.274 OA
ATOM      3  N   LEU A   2       6.099   6.960   1.543  0.00  0.00    -0.298 N 
ATOM      4  H   LEU A   2       6.713   6.999   0.704  0.00  0.00    +0.150 HD
ENDROOT
BRANCH   1   5
ATOM      5  CA  ALA A   1       4.401   7.759   0.021  0.00  0.00    +0.145 C 
ATOM      6  CB  ALA A   1       4.187   6.544  -0.858  0.00  0.00    +0.028 C 
BRANCH   5   7
ATOM      7  N   ALA A   1       5.444   8.609  -0.549  0.00  0.00    -0.238 NA
ATOM      8  H   ALA A   1       6.008   8.258  -1.349  0.00  0.00    +0.142 HD
ENDBRANCH   5   7
ENDBRANCH   1   5
BRANCH   3   9
ATOM      9  CA  LEU A   2       6.673   6.511   2.811  0.00  0.00    +0.137 C 
BRANCH   9  10
ATOM     10  C   LEU A   2       6.603   7.591   3.888  0.00  0.00    +0.227 C 
ATOM     11  O   LEU A   2       6.269   7.308   5.034  0.00  0.00    -0.286 OA
ENDBRANCH   9  10
BRANCH   9  12
ATOM     12  CB  LEU A   2       8.121   6.092   2.594  0.00  0.00    +0.028 C 
BRANCH  12  13
ATOM     13  CG  LEU A   2       8.788   5.344   3.741  0.00  0.00    +0.002 C 
ATOM     14  CD2 LEU A   2       7.931   4.152   4.143  0.00  0.00    +0.000 C 
ATOM     15  CD1 LEU A   2      10.182   4.907   3.312  0.00  0.00    +0.000 C 
ENDBRANCH  12  13
ENDBRANCH   9  12
ENDBRANCH   3   9
TORSDOF 6
REMARK  Name = ../refined-set-2016/3v2q/3v2q_pocket.pdb
REMARK  266 active torsions:
REMARK  status: ('A' for Active; 'I' for Inactive)
REMARK    1  A    between atoms: _1  and  _3
REMARK    2  A    between atoms: _3  and  _4
REMARK    3  A    between atoms: _3  and  _6
REMARK    4  A    between atoms: _6  and  _7
REMARK    5  A    between atoms: _7  and  _8
REMARK    6  A    between atoms: _11  and  _13
REMARK    7  A    between atoms: _13  and  _14
REMARK    8  A    between atoms: _13  and  _16
REMARK    9  A    between atoms: _16  and  _17
REMARK   10  A    between atoms: _20  and  _22
REMARK   11  A    between atoms: _22  and  _23
REMARK   12  A    between atoms: _22  and  _25
REMARK   13  A    between atoms: _25  and  _26
REMARK   14  A    between atoms: _29  and  _31
REMARK   15  A    between atoms: _31  and  _32
REMARK   16  A    between atoms: _31  and  _34
REMARK   17  A    between atoms: _34  and  _35
REMARK   18  A    between atoms: _40  and  _42
REMARK   19  A    between atoms: _42  and  _43
REMARK   20  A    between atoms: _46  and  _48
REMARK   21  A    between atoms: _48  and  _49
REMARK   22  A    between atoms: _48  and  _51
REMARK   23  A    between atoms: _51  and  _52
REMARK   24  A    between atoms: _55  and  _57
REMARK   25  A    between atoms: _57  and  _58
REMARK   26  A    between atoms: _57  and  _60
REMARK   27  A    between atoms: _63  and  _65
REMARK   28  A    between atoms: _65  and  _66
REMARK   29  A    between atoms: _65  and  _68
REMARK   30  A    between atoms: _68  and  _69
REMARK   31  A    between atoms: _69  and  _70
REMARK   32  A    between atoms: _70  and  _71
REMARK   33  A    between atoms: _80  and  _82
REMARK   34  A    between atoms: _82  and  _83
REMARK   35  A    between atoms: _82  and  _85
REMARK   36  A    between atoms: _85  and  _86
REMARK   37  A    between atoms: _89  and  _91
REMARK   38  A    between atoms: _91  and  _92
REMARK   39  A    between atoms: _91  and  _94
REMARK   40  A    between atoms: _94  and  _95
REMARK   41  A    between atoms: _98  and  _100
REMARK   42  A    between atoms: _100  and  _101
REMARK   43  A    between atoms: _100  and  _103
REMARK   44  A    between atoms: _103  and  _104
REMARK   45  A    between atoms: _104  and  _105
REMARK   46  A    between atoms: _110  and  _112
REMARK   47  A    between atoms: _112  and  _113
REMARK   48  A    between atoms: _112  and  _115
REMARK   49  A    between atoms: _118  and  _120
REMARK   50  A    between atoms: _120  and  _121
REMARK   51  A    between atoms: _120  and  _123
REMARK   52  A    between atoms: _123  and  _124
REMARK   53  A    between atoms: _127  and  _129
REMARK   54  A    between atoms: _129  and  _130
REMARK   55  A    between atoms: _129  and  _132
REMARK   56  A    between atoms: _132  and  _133
REMARK   57  A    between atoms: _133  and  _134
REMARK   58  A    between atoms: _137  and  _139
REMARK   59  A    between atoms: _139  and  _140
REMARK   60  A    between atoms: _139  and  _142
REMARK   61  A    between atoms: _142  and  _143
REMARK   62  A    between atoms: _146  and  _148
REMARK   63  A    between atoms: _148  and  _149
REMARK   64  A    between atoms: _148  and  _151
REMARK   65  A    between atoms: _151  and  _152
REMARK   66  A    between atoms: _155  and  _157
REMARK   67  A    between atoms: _157  and  _158
REMARK   68  A    between atoms: _157  and  _160
REMARK   69  A    between atoms: _160  and  _161
REMARK   70  A    between atoms: _166  and  _168
REMARK   71  A    between atoms: _168  and  _169
REMARK   72  A    between atoms: _172  and  _174
REMARK   73  A    between atoms: _174  and  _175
REMARK   74  A    between atoms: _174  and  _177
REMARK   75  A    between atoms: _177  and  _178
REMARK   76  A    between atoms: _181  and  _183
REMARK   77  A    between atoms: _183  and  _184
REMARK   78  A    between atoms: _183  and  _186
REMARK   79  A    between atoms: _189  and  _191
REMARK   80  A    between atoms: _191  and  _192
REMARK   81  A    between atoms: _191  and  _194
REMARK   82  A    between atoms: _194  and  _195
REMARK   83  A    between atoms: _195  and  _196
REMARK   84  A    between atoms: _196  and  _197
REMARK   85  A    between atoms: _206  and  _208
REMARK   86  A    between atoms: _208  and  _209
REMARK   87  A    between atoms: _208  and  _211
REMARK   88  A    between atoms: _211  and  _212
REMARK   89  A    between atoms: _215  and  _217
REMARK   90  A    between atoms: _217  and  _218
REMARK   91  A    between atoms: _217  and  _220
REMARK   92  A    between atoms: _220  and  _221
REMARK   93  A    between atoms: _224  and  _226
REMARK   94  A    between atoms: _226  and  _227
REMARK   95  A    between atoms: _226  and  _229
REMARK   96  A    between atoms: _229  and  _230
REMARK   97  A    between atoms: _230  and  _231
REMARK   98  A    between atoms: _236  and  _238
REMARK   99  A    between atoms: _238  and  _239
REMARK  100  A    between atoms: _238  and  _241
REMARK  101  A    between atoms: _244  and  _246
REMARK  102  A    between atoms: _246  and  _247
REMARK  103  A    between atoms: _246  and  _249
REMARK  104  A    between atoms: _249  and  _250
REMARK  105  A    between atoms: _253  and  _255
REMARK  106  A    between atoms: _255  and  _256
REMARK  107  A    between atoms: _255  and  _258
REMARK  108  A    between atoms: _258  and  _259
REMARK  109  A    between atoms: _259  and  _260
REMARK  110  A    between atoms: _263  and  _265
REMARK  111  A    between atoms: _265  and  _266
REMARK  112  A    between atoms: _265  and  _268
REMARK  113  A    between atoms: _268  and  _269
REMARK  114  A    between atoms: _272  and  _274
REMARK  115  A    between atoms: _274  and  _275
REMARK  116  A    between atoms: _274  and  _277
REMARK  117  A    between atoms: _277  and  _278
REMARK  118  A    between atoms: _281  and  _283
REMARK  119  A    between atoms: _283  and  _284
REMARK  120  A    between atoms: _283  and  _286
REMARK  121  A    between atoms: _286  and  _287
REMARK  122  A    between atoms: _292  and  _294
REMARK  123  A    between atoms: _294  and  _295
REMARK  124  A    between atoms: _298  and  _300
REMARK  125  A    between atoms: _300  and  _301
REMARK  126  A    between atoms: _300  and  _303
REMARK  127  A    between atoms: _303  and  _304
REMARK  128  A    between atoms: _307  and  _309
REMARK  129  A    between atoms: _309  and  _310
REMARK  130  A    between atoms: _309  and  _312
REMARK  131  A    between atoms: _315  and  _317
REMARK  132  A    between atoms: _317  and  _318
REMARK  133  A    between atoms: _317  and  _320
REMARK  134  A    between atoms: _320  and  _321
REMARK  135  A    between atoms: _321  and  _322
REMARK  136  A    between atoms: _322  and  _323
REMARK  137  A    between atoms: _332  and  _334
REMARK  138  A    between atoms: _334  and  _335
REMARK  139  A    between atoms: _334  and  _337
REMARK  140  A    between atoms: _337  and  _338
REMARK  141  A    between atoms: _341  and  _343
REMARK  142  A    between atoms: _343  and  _344
REMARK  143  A    between atoms: _343  and  _346
REMARK  144  A    between atoms: _346  and  _347
REMARK  145  A    between atoms: _350  and  _352
REMARK  146  A    between atoms: _352  and  _353
REMARK  147  A    between atoms: _352  and  _355
REMARK  148  A    between atoms: _355  and  _356
REMARK  149  A    between atoms: _356  and  _357
REMARK  150  A    between atoms: _357  and  _358
REMARK  151  A    between atoms: _367  and  _369
REMARK  152  A    between atoms: _369  and  _370
REMARK  153  A    between atoms: _369  and  _372
REMARK  154  A    between atoms: _372  and  _373
REMARK  155  A    between atoms: _373  and  _374
REMARK  156  A    between atoms: _379  and  _381
REMARK  157  A    between atoms: _381  and  _382
REMARK  158  A    between atoms: _381  and  _384
REMARK  159  A    between atoms: _387  and  _389
REMARK  160  A    between atoms: _389  and  _390
REMARK  161  A    between atoms: _389  and  _392
REMARK  162  A    between atoms: _392  and  _393
REMARK  163  A    between atoms: _396  and  _398
REMARK  164  A    between atoms: _398  and  _399
REMARK  165  A    between atoms: _398  and  _401
REMARK  166  A    between atoms: _401  and  _402
REMARK  167  A    between atoms: _402  and  _403
REMARK  168  A    between atoms: _406  and  _408
REMARK  169  A    between atoms: _408  and  _409
REMARK  170  A    between atoms: _408  and  _411
REMARK  171  A    between atoms: _411  and  _412
REMARK  172  A    between atoms: _415  and  _417
REMARK  173  A    between atoms: _417  and  _418
REMARK  174  A    between atoms: _417  and  _420
REMARK  175  A    between atoms: _420  and  _421
REMARK  176  A    between atoms: _424  and  _426
REMARK  177  A    between atoms: _426  and  _427
REMARK  178  A    between atoms: _426  and  _429
REMARK  179  A    between atoms: _429  and  _430
REMARK  180  A    between atoms: _435  and  _437
REMARK  181  A    between atoms: _437  and  _438
REMARK  182  A    between atoms: _441  and  _443
REMARK  183  A    between atoms: _443  and  _444
REMARK  184  A    between atoms: _443  and  _446
REMARK  185  A    between atoms: _446  and  _447
REMARK  186  A    between atoms: _450  and  _452
REMARK  187  A    between atoms: _452  and  _453
REMARK  188  A    between atoms: _452  and  _455
REMARK  189  A    between atoms: _458  and  _460
REMARK  190  A    between atoms: _460  and  _461
REMARK  191  A    between atoms: _460  and  _463
REMARK  192  A    between atoms: _463  and  _464
REMARK  193  A    between atoms: _464  and  _465
REMARK  194  A    between atoms: _465  and  _466
REMARK  195  A    between atoms: _475  and  _477
REMARK  196  A    between atoms: _477  and  _478
REMARK  197  A    between atoms: _477  and  _480
REMARK  198  A    between atoms: _480  and  _481
REMARK  199  A    between atoms: _484  and  _486
REMARK  200  A    between atoms: _486  and  _487
REMARK  201  A    between atoms: _486  and  _489
REMARK  202  A    between atoms: _489  and  _490
REMARK  203  A    between atoms: _493  and  _495
REMARK  204  A    between atoms: _495  and  _496
REMARK  205  A    between atoms: _495  and  _498
REMARK  206  A    between atoms: _498  and  _499
REMARK  207  A    between atoms: _499  and  _500
REMARK  208  A    between atoms: _505  and  _507
REMARK  209  A    between atoms: _507  and  _508
REMARK  210  A    between atoms: _507  and  _510
REMARK  211  A    between atoms: _513  and  _515
REMARK  212  A    between atoms: _515  and  _516
REMARK  213  A    between atoms: _515  and  _518
REMARK  214  A    between atoms: _518  and  _519
REMARK  215  A    between atoms: _522  and  _524
REMARK  216  A    between atoms: _524  and  _525
REMARK  217  A    between atoms: _524  and  _527
REMARK  218  A    between atoms: _527  and  _528
REMARK  219  A    between atoms: _528  and  _529
REMARK  220  A    between atoms: _532  and  _534
REMARK  221  A    between atoms: _534  and  _535
REMARK  222  A    between atoms: _534  and  _537
REMARK  223  A    between atoms: _537  and  _538
REMARK  224  A    between atoms: _541  and  _543
REMARK  225  A    between atoms: _543  and  _544
REMARK  226  A    between atoms: _543  and  _546
REMARK  227  A    between atoms: _546  and  _547
REMARK  228  A    between atoms: _550  and  _552
REMARK  229  A    between atoms: _552  and  _553
REMARK  230  A    between atoms: _552  and  _555
REMARK  231  A    between atoms: _555  and  _556
REMARK  232  A    between atoms: _561  and  _563
REMARK  233  A    between atoms: _563  and  _564
REMARK  234  A    between atoms: _567  and  _569
REMARK  235  A    between atoms: _569  and  _570
REMARK  236  A    between atoms: _569  and  _572
REMARK  237  A    between atoms: _572  and  _573
REMARK  238  A    between atoms: _576  and  _578
REMARK  239  A    between atoms: _578  and  _579
REMARK  240  A    between atoms: _578  and  _581
REMARK  241  A    between atoms: _584  and  _586
REMARK  242  A    between atoms: _586  and  _587
REMARK  243  A    between atoms: _586  and  _589
REMARK  244  A    between atoms: _589  and  _590
REMARK  245  A    between atoms: _590  and  _591
REMARK  246  A    between atoms: _591  and  _592
REMARK  247  A    between atoms: _601  and  _603
REMARK  248  A    between atoms: _603  and  _604
REMARK  249  A    between atoms: _603  and  _606
REMARK  250  A    between atoms: _606  and  _607
REMARK  251  A    between atoms: _610  and  _612
REMARK  252  A    between atoms: _612  and  _613
REMARK  253  A    between atoms: _612  and  _615
REMARK  254  A    between atoms: _615  and  _616
REMARK  255  A    between atoms: _619  and  _621
REMARK  256  A    between atoms: _621  and  _622
REMARK  257  A    between atoms: _621  and  _624
REMARK  258  A    between atoms: _624  and  _625
REMARK  259  A    between atoms: _625  and  _626
REMARK  260  A    between atoms: _631  and  _633
REMARK  261  A    between atoms: _633  and  _634
REMARK  262  A    between atoms: _633  and  _636
REMARK  263  A    between atoms: _639  and  _641
REMARK  264  A    between atoms: _641  and  _642
REMARK  265  A    between atoms: _641  and  _644
REMARK  266  A    between atoms: _644  and  _645
REMARK                            x       y       z     vdW  Elec       q    Type
REMARK                         _______ _______ _______ _____ _____    ______ ____
ROOT
ATOM      1  CA  ARG A   2       5.401   7.634   8.887  0.00  0.00    +0.137 C 
ENDROOT
BRANCH   1   4
ATOM      2  C   VAL A   1       3.582   6.765   7.526  0.00  0.00    +0.238 C 
ATOM      3  O   VAL A   1       2.916   6.466   8.517  0.00  0.00    -0.274 OA
ATOM      4  N   ARG A   2       4.785   7.320   7.603  0.00  0.00    -0.298 N 
ATOM      5  H   ARG A   2       5.301   7.536   6.726  0.00  0.00    +0.150 HD
BRANCH   2   6
ATOM      6  CA  VAL A   1       3.056   6.499   6.120  0.00  0.00    +0.145 C 
BRANCH   6   7
ATOM      7  CB  VAL A   1       3.753   5.248   5.551  0.00  0.00    +0.025 C 
ATOM      8  CG2 VAL A   1       3.799   4.137   6.600  0.00  0.00    +0.002 C 
ATOM      9  CG1 VAL A   1       3.009   4.776   4.310  0.00  0.00    +0.002 C 
ENDBRANCH   6   7
BRANCH   6  10
ATOM     10  N   VAL A   1       3.269   7.654   5.250  0.00  0.00    -0.238 NA
ATOM     11  H   VAL A   1       3.871   7.547   4.409  0.00  0.00    +0.142 HD
ENDBRANCH   6  10
ENDBRANCH   2   6
ENDBRANCH   1   4
BRANCH   1  12
ATOM     12  C   ARG A   2       4.499   8.598   9.668  0.00  0.00    +0.227 C 
ATOM     13  O   ARG A   2       4.257   8.425  10.863  0.00  0.00    -0.286 OA
ENDBRANCH   1  12
BRANCH   1  14
ATOM     14  CB  ARG A   2       6.778   8.272   8.661  0.00  0.00    +0.031 C 
BRANCH  14  15
ATOM     15  CG  ARG A   2       7.492   8.695   9.951  0.00  0.00    +0.045 C 
BRANCH  15  16
ATOM     16  CD  ARG A   2       8.310   9.966   9.742  0.00  0.00    +0.174 C 
BRANCH  16  17
ATOM     17  NE  ARG A   2       9.577   9.730   9.059  0.00  0.00    -0.265 N 
ATOM     18  HE  ARG A   2      10.032   8.804   9.187  0.00  0.00    +0.259 HD
ATOM     19  CZ  ARG A   2      10.191  10.621   8.282  0.00  0.00    +0.342 C 
ATOM     20  NH2 ARG A   2       9.653  11.820   8.076  0.00  0.00    -0.292 N 
ATOM     21 HH21 ARG A   2       8.747  12.067   8.523  0.00  0.00    +0.255 HD
ATOM     22 HH22 ARG A   2      10.138  12.510   7.468  0.00  0.00    +0.255 HD
ATOM     23  NH1 ARG A   2      11.349  10.320   7.717  0.00  0.00    -0.292 N 
ATOM     24 HH11 ARG A   2      11.780   9.388   7.879  0.00  0.00    +0.255 HD
ATOM     25 HH12 ARG A   2      11.828  11.016   7.110  0.00  0.00    +0.255 HD
ENDBRANCH  16  17
ENDBRANCH  15  16
ENDBRANCH  14  15
ENDBRANCH   1  14
TORSDOF 9
REMARK  Name = ../refined-set-2016/3v2q/3v2q_pocket.pdb
REMARK  266 active torsions:
REMARK  status: ('A' for Active; 'I' for Inactive)
REMARK    1  A    between atoms: _1  and  _3
REMARK    2  A    between atoms: _3  and  _4
REMARK    3  A    between atoms: _3  and  _6
REMARK    4  A    between atoms: _6  and  _7
REMARK    5  A    between atoms: _7  and  _8
REMARK    6  A    between atoms: _11  and  _13
REMARK    7  A    between atoms: _13  and  _14
REMARK    8  A    between atoms: _13  and  _16
REMARK    9  A    between atoms: _16  and  _17
REMARK   10  A    between atoms: _20  and  _22
REMARK   11  A    between atoms: _22  and  _23
REMARK   12  A    between atoms: _22  and  _25
REMARK   13  A    between atoms: _25  and  _26
REMARK   14  A    between atoms: _29  and  _31
REMARK   15  A    between atoms: _31  and  _32
REMARK   16  A    between atoms: _31  and  _34
REMARK   17  A    between atoms: _34  and  _35
REMARK   18  A    between atoms: _40  and  _42
REMARK   19  A    between atoms: _42  and  _43
REMARK   20  A    between atoms: _46  and  _48
REMARK   21  A    between atoms: _48  and  _49
REMARK   22  A    between atoms: _48  and  _51
REMARK   23  A    between atoms: _51  and  _52
REMARK   24  A    between atoms: _55  and  _57
REMARK   25  A    between atoms: _57  and  _58
REMARK   26  A    between atoms: _57  and  _60
REMARK   27  A    between atoms: _63  and  _65
REMARK   28  A    between atoms: _65  and  _66
REMARK   29  A    between atoms: _65  and  _68
REMARK   30  A    between atoms: _68  and  _69
REMARK   31  A    between atoms: _69  and  _70
REMARK   32  A    between atoms: _70  and  _71
REMARK   33  A    between atoms: _80  and  _82
REMARK   34  A    between atoms: _82  and  _83
REMARK   35  A    between atoms: _82  and  _85
REMARK   36  A    between atoms: _85  and  _86
REMARK   37  A    between atoms: _89  and  _91
REMARK   38  A    between atoms: _91  and  _92
REMARK   39  A    between atoms: _91  and  _94
REMARK   40  A    between atoms: _94  and  _95
REMARK   41  A    between atoms: _98  and  _100
REMARK   42  A    between atoms: _100  and  _101
REMARK   43  A    between atoms: _100  and  _103
REMARK   44  A    between atoms: _103  and  _104
REMARK   45  A    between atoms: _104  and  _105
REMARK   46  A    between atoms: _110  and  _112
REMARK   47  A    between atoms: _112  and  _113
REMARK   48  A    between atoms: _112  and  _115
REMARK   49  A    between atoms: _118  and  _120
REMARK   50  A    between atoms: _120  and  _121
REMARK   51  A    between atoms: _120  and  _123
REMARK   52  A    between atoms: _123  and  _124
REMARK   53  A    between atoms: _127  and  _129
REMARK   54  A    between atoms: _129  and  _130
REMARK   55  A    between atoms: _129  and  _132
REMARK   56  A    between atoms: _132  and  _133
REMARK   57  A    between atoms: _133  and  _134
REMARK   58  A    between atoms: _137  and  _139
REMARK   59  A    between atoms: _139  and  _140
REMARK   60  A    between atoms: _139  and  _142
REMARK   61  A    between atoms: _142  and  _143
REMARK   62  A    between atoms: _146  and  _148
REMARK   63  A    between atoms: _148  and  _149
REMARK   64  A    between atoms: _148  and  _151
REMARK   65  A    between atoms: _151  and  _152
REMARK   66  A    between atoms: _155  and  _157
REMARK   67  A    between atoms: _157  and  _158
REMARK   68  A    between atoms: _157  and  _160
REMARK   69  A    between atoms: _160  and  _161
REMARK   70  A    between atoms: _166  and  _168
REMARK   71  A    between atoms: _168  and  _169
REMARK   72  A    between atoms: _172  and  _174
REMARK   73  A    between atoms: _174  and  _175
REMARK   74  A    between atoms: _174  and  _177
REMARK   75  A    between atoms: _177  and  _178
REMARK   76  A    between atoms: _181  and  _183
REMARK   77  A    between atoms: _183  and  _184
REMARK   78  A    between atoms: _183  and  _186
REMARK   79  A    between atoms: _189  and  _191
REMARK   80  A    between atoms: _191  and  _192
REMARK   81  A    between atoms: _191  and  _194
REMARK   82  A    between atoms: _194  and  _195
REMARK   83  A    between atoms: _195  and  _196
REMARK   84  A    between atoms: _196  and  _197
REMARK   85  A    between atoms: _206  and  _208
REMARK   86  A    between atoms: _208  and  _209
REMARK   87  A    between atoms: _208  and  _211
REMARK   88  A    between atoms: _211  and  _212
REMARK   89  A    between atoms: _215  and  _217
REMARK   90  A    between atoms: _217  and  _218
REMARK   91  A    between atoms: _217  and  _220
REMARK   92  A    between atoms: _220  and  _221
REMARK   93  A    between atoms: _224  and  _226
REMARK   94  A    between atoms: _226  and  _227
REMARK   95  A    between atoms: _226  and  _229
REMARK   96  A    between atoms: _229  and  _230
REMARK   97  A    between atoms: _230  and  _231
REMARK   98  A    between atoms: _236  and  _238
REMARK   99  A    between atoms: _238  and  _239
REMARK  100  A    between atoms: _238  and  _241
REMARK  101  A    between atoms: _244  and  _246
REMARK  102  A    between atoms: _246  and  _247
REMARK  103  A    between atoms: _246  and  _249
REMARK  104  A    between atoms: _249  and  _250
REMARK  105  A    between atoms: _253  and  _255
REMARK  106  A    between atoms: _255  and  _256
REMARK  107  A    between atoms: _255  and  _258
REMARK  108  A    between atoms: _258  and  _259
REMARK  109  A    between atoms: _259  and  _260
REMARK  110  A    between atoms: _263  and  _265
REMARK  111  A    between atoms: _265  and  _266
REMARK  112  A    between atoms: _265  and  _268
REMARK  113  A    between atoms: _268  and  _269
REMARK  114  A    between atoms: _272  and  _274
REMARK  115  A    between atoms: _274  and  _275
REMARK  116  A    between atoms: _274  and  _277
REMARK  117  A    between atoms: _277  and  _278
REMARK  118  A    between atoms: _281  and  _283
REMARK  119  A    between atoms: _283  and  _284
REMARK  120  A    between atoms: _283  and  _286
REMARK  121  A    between atoms: _286  and  _287
REMARK  122  A    between atoms: _292  and  _294
REMARK  123  A    between atoms: _294  and  _295
REMARK  124  A    between atoms: _298  and  _300
REMARK  125  A    between atoms: _300  and  _301
REMARK  126  A    between atoms: _300  and  _303
REMARK  127  A    between atoms: _303  and  _304
REMARK  128  A    between atoms: _307  and  _309
REMARK  129  A    between atoms: _309  and  _310
REMARK  130  A    between atoms: _309  and  _312
REMARK  131  A    between atoms: _315  and  _317
REMARK  132  A    between atoms: _317  and  _318
REMARK  133  A    between atoms: _317  and  _320
REMARK  134  A    between atoms: _320  and  _321
REMARK  135  A    between atoms: _321  and  _322
REMARK  136  A    between atoms: _322  and  _323
REMARK  137  A    between atoms: _332  and  _334
REMARK  138  A    between atoms: _334  and  _335
REMARK  139  A    between atoms: _334  and  _337
REMARK  140  A    between atoms: _337  and  _338
REMARK  141  A    between atoms: _341  and  _343
REMARK  142  A    between atoms: _343  and  _344
REMARK  143  A    between atoms: _343  and  _346
REMARK  144  A    between atoms: _346  and  _347
REMARK  145  A    between atoms: _350  and  _352
REMARK  146  A    between atoms: _352  and  _353
REMARK  147  A    between atoms: _352  and  _355
REMARK  148  A    between atoms: _355  and  _356
REMARK  149  A    between atoms: _356  and  _357
REMARK  150  A    between atoms: _357  and  _358
REMARK  151  A    between atoms: _367  and  _369
REMARK  152  A    between atoms: _369  and  _370
REMARK  153  A    between atoms: _369  and  _372
REMARK  154  A    between atoms: _372  and  _373
REMARK  155  A    between atoms: _373  and  _374
REMARK  156  A    between atoms: _379  and  _381
REMARK  157  A    between atoms: _381  and  _382
REMARK  158  A    between atoms: _381  and  _384
REMARK  159  A    between atoms: _387  and  _389
REMARK  160  A    between atoms: _389  and  _390
REMARK  161  A    between atoms: _389  and  _392
REMARK  162  A    between atoms: _392  and  _393
REMARK  163  A    between atoms: _396  and  _398
REMARK  164  A    between atoms: _398  and  _399
REMARK  165  A    between atoms: _398  and  _401
REMARK  166  A    between atoms: _401  and  _402
REMARK  167  A    between atoms: _402  and  _403
REMARK  168  A    between atoms: _406  and  _408
REMARK  169  A    between atoms: _408  and  _409
REMARK  170  A    between atoms: _408  and  _411
REMARK  171  A    between atoms: _411  and  _412
REMARK  172  A    between atoms: _415  and  _417
REMARK  173  A    between atoms: _417  and  _418
REMARK  174  A    between atoms: _417  and  _420
REMARK  175  A    between atoms: _420  and  _421
REMARK  176  A    between atoms: _424  and  _426
REMARK  177  A    between atoms: _426  and  _427
REMARK  178  A    between atoms: _426  and  _429
REMARK  179  A    between atoms: _429  and  _430
REMARK  180  A    between atoms: _435  and  _437
REMARK  181  A    between atoms: _437  and  _438
REMARK  182  A    between atoms: _441  and  _443
REMARK  183  A    between atoms: _443  and  _444
REMARK  184  A    between atoms: _443  and  _446
REMARK  185  A    between atoms: _446  and  _447
REMARK  186  A    between atoms: _450  and  _452
REMARK  187  A    between atoms: _452  and  _453
REMARK  188  A    between atoms: _452  and  _455
REMARK  189  A    between atoms: _458  and  _460
REMARK  190  A    between atoms: _460  and  _461
REMARK  191  A    between atoms: _460  and  _463
REMARK  192  A    between atoms: _463  and  _464
REMARK  193  A    between atoms: _464  and  _465
REMARK  194  A    between atoms: _465  and  _466
REMARK  195  A    between atoms: _475  and  _477
REMARK  196  A    between atoms: _477  and  _478
REMARK  197  A    between atoms: _477  and  _480
REMARK  198  A    between atoms: _480  and  _481
REMARK  199  A    between atoms: _484  and  _486
REMARK  200  A    between atoms: _486  and  _487
REMARK  201  A    between atoms: _486  and  _489
REMARK  202  A    between atoms: _489  and  _490
REMARK  203  A    between atoms: _493  and  _495
REMARK  204  A    between atoms: _495  and  _496
REMARK  205  A    between atoms: _495  and  _498
REMARK  206  A    between atoms: _498  and  _499
REMARK  207  A    between atoms: _499  and  _500
REMARK  208  A    between atoms: _505  and  _507
REMARK  209  A    between atoms: _507  and  _508
REMARK  210  A    between atoms: _507  and  _510
REMARK  211  A    between atoms: _513  and  _515
REMARK  212  A    between atoms: _515  and  _516
REMARK  213  A    between atoms: _515  and  _518
REMARK  214  A    between atoms: _518  and  _519
REMARK  215  A    between atoms: _522  and  _524
REMARK  216  A    between atoms: _524  and  _525
REMARK  217  A    between atoms: _524  and  _527
REMARK  218  A    between atoms: _527  and  _528
REMARK  219  A    between atoms: _528  and  _529
REMARK  220  A    between atoms: _532  and  _534
REMARK  221  A    between atoms: _534  and  _535
REMARK  222  A    between atoms: _534  and  _537
REMARK  223  A    between atoms: _537  and  _538
REMARK  224  A    between atoms: _541  and  _543
REMARK  225  A    between atoms: _543  and  _544
REMARK  226  A    between atoms: _543  and  _546
REMARK  227  A    between atoms: _546  and  _547
REMARK  228  A    between atoms: _550  and  _552
REMARK  229  A    between atoms: _552  and  _553
REMARK  230  A    between atoms: _552  and  _555
REMARK  231  A    between atoms: _555  and  _556
REMARK  232  A    between atoms: _561  and  _563
REMARK  233  A    between atoms: _563  and  _564
REMARK  234  A    between atoms: _567  and  _569
REMARK  235  A    between atoms: _569  and  _570
REMARK  236  A    between atoms: _569  and  _572
REMARK  237  A    between atoms: _572  and  _573
REMARK  238  A    between atoms: _576  and  _578
REMARK  239  A    between atoms: _578  and  _579
REMARK  240  A    between atoms: _578  and  _581
REMARK  241  A    between atoms: _584  and  _586
REMARK  242  A    between atoms: _586  and  _587
REMARK  243  A    between atoms: _586  and  _589
REMARK  244  A    between atoms: _589  and  _590
REMARK  245  A    between atoms: _590  and  _591
REMARK  246  A    between atoms: _591  and  _592
REMARK  247  A    between atoms: _601  and  _603
REMARK  248  A    between atoms: _603  and  _604
REMARK  249  A    between atoms: _603  and  _606
REMARK  250  A    between atoms: _606  and  _607
REMARK  251  A    between atoms: _610  and  _612
REMARK  252  A    between atoms: _612  and  _613
REMARK  253  A    between atoms: _612  and  _615
REMARK  254  A    between atoms: _615  and  _616
REMARK  255  A    between atoms: _619  and  _621
REMARK  256  A    between atoms: _621  and  _622
REMARK  257  A    between atoms: _621  and  _624
REMARK  258  A    between atoms: _624  and  _625
REMARK  259  A    between atoms: _625  and  _626
REMARK  260  A    between atoms: _631  and  _633
REMARK  261  A    between atoms: _633  and  _634
REMARK  262  A    between atoms: _633  and  _636
REMARK  263  A    between atoms: _639  and  _641
REMARK  264  A    between atoms: _641  and  _642
REMARK  265  A    between atoms: _641  and  _644
REMARK  266  A    between atoms: _644  and  _645
REMARK                            x       y       z     vdW  Elec       q    Type
REMARK                         _______ _______ _______ _____ _____    ______ ____
ROOT
ATOM      1  C   LEU A   1       0.267   7.497  10.813  0.00  0.00    +0.238 C 
ATOM      2  O   LEU A   1      -0.575   7.469  11.709  0.00  0.00    -0.274 OA
ATOM      3  N   LEU A   2       1.407   6.802  10.873  0.00  0.00    -0.298 N 
ATOM      4  H   LEU A   2       2.083   6.872  10.086  0.00  0.00    +0.150 HD
ENDROOT
BRANCH   1   5
ATOM      5  CA  LEU A   1       0.050   8.374   9.566  0.00  0.00    +0.145 C 
BRANCH   5   6
ATOM      6  N   LEU A   1       1.297   9.048   9.220  0.00  0.00    -0.238 NA
ATOM      7  H   LEU A   1       1.789   8.805   8.336  0.00  0.00    +0.142 HD
ENDBRANCH   5   6
BRANCH   5   8
ATOM      8  CB  LEU A   1      -0.440   7.531   8.385  0.00  0.00    +0.026 C 
BRANCH   8   9
ATOM      9  CG  LEU A   1      -1.021   8.335   7.207  0.00  0.00    +0.002 C 
ATOM     10  CD2 LEU A   1      -2.318   9.006   7.641  0.00  0.00    +0.000 C 
ATOM     11  CD1 LEU A   1      -1.267   7.434   6.004  0.00  0.00    +0.000 C 
ENDBRANCH   8   9
ENDBRANCH   5   8
ENDBRANCH   1   5
BRANCH   3  12
ATOM     12  CA  LEU A   2       1.733   5.942  12.020  0.00  0.00    +0.137 C 
BRANCH  12  13
ATOM     13  C   LEU A   2       1.991   6.816  13.241  0.00  0.00    +0.227 C 
ATOM     14  O   LEU A   2       1.733   6.423  14.378  0.00  0.00    -0.286 OA
ENDBRANCH  12  13
BRANCH  12  15
ATOM     15  CB  LEU A   2       2.991   5.121  11.742  0.00  0.00    +0.028 C 
BRANCH  15  16
ATOM     16  CG  LEU A   2       2.911   3.598  11.862  0.00  0.00    +0.002 C 
ATOM     17  CD2 LEU A   2       2.176   3.188  13.124  0.00  0.00    +0.000 C 
ATOM     18  CD1 LEU A   2       4.329   3.043  11.883  0.00  0.00    +0.000 C 
ENDBRANCH  15  16
ENDBRANCH  12  15
ENDBRANCH   3  12
TORSDOF 8
REMARK  Name = ../refined-set-2016/3v2q/3v2q_pocket.pdb
REMARK  266 active torsions:
REMARK  status: ('A' for Active; 'I' for Inactive)
REMARK    1  A    between atoms: _1  and  _3
REMARK    2  A    between atoms: _3  and  _4
REMARK    3  A    between atoms: _3  and  _6
REMARK    4  A    between atoms: _6  and  _7
REMARK    5  A    between atoms: _7  and  _8
REMARK    6  A    between atoms: _11  and  _13
REMARK    7  A    between atoms: _13  and  _14
REMARK    8  A    between atoms: _13  and  _16
REMARK    9  A    between atoms: _16  and  _17
REMARK   10  A    between atoms: _20  and  _22
REMARK   11  A    between atoms: _22  and  _23
REMARK   12  A    between atoms: _22  and  _25
REMARK   13  A    between atoms: _25  and  _26
REMARK   14  A    between atoms: _29  and  _31
REMARK   15  A    between atoms: _31  and  _32
REMARK   16  A    between atoms: _31  and  _34
REMARK   17  A    between atoms: _34  and  _35
REMARK   18  A    between atoms: _40  and  _42
REMARK   19  A    between atoms: _42  and  _43
REMARK   20  A    between atoms: _46  and  _48
REMARK   21  A    between atoms: _48  and  _49
REMARK   22  A    between atoms: _48  and  _51
REMARK   23  A    between atoms: _51  and  _52
REMARK   24  A    between atoms: _55  and  _57
REMARK   25  A    between atoms: _57  and  _58
REMARK   26  A    between atoms: _57  and  _60
REMARK   27  A    between atoms: _63  and  _65
REMARK   28  A    between atoms: _65  and  _66
REMARK   29  A    between atoms: _65  and  _68
REMARK   30  A    between atoms: _68  and  _69
REMARK   31  A    between atoms: _69  and  _70
REMARK   32  A    between atoms: _70  and  _71
REMARK   33  A    between atoms: _80  and  _82
REMARK   34  A    between atoms: _82  and  _83
REMARK   35  A    between atoms: _82  and  _85
REMARK   36  A    between atoms: _85  and  _86
REMARK   37  A    between atoms: _89  and  _91
REMARK   38  A    between atoms: _91  and  _92
REMARK   39  A    between atoms: _91  and  _94
REMARK   40  A    between atoms: _94  and  _95
REMARK   41  A    between atoms: _98  and  _100
REMARK   42  A    between atoms: _100  and  _101
REMARK   43  A    between atoms: _100  and  _103
REMARK   44  A    between atoms: _103  and  _104
REMARK   45  A    between atoms: _104  and  _105
REMARK   46  A    between atoms: _110  and  _112
REMARK   47  A    between atoms: _112  and  _113
REMARK   48  A    between atoms: _112  and  _115
REMARK   49  A    between atoms: _118  and  _120
REMARK   50  A    between atoms: _120  and  _121
REMARK   51  A    between atoms: _120  and  _123
REMARK   52  A    between atoms: _123  and  _124
REMARK   53  A    between atoms: _127  and  _129
REMARK   54  A    between atoms: _129  and  _130
REMARK   55  A    between atoms: _129  and  _132
REMARK   56  A    between atoms: _132  and  _133
REMARK   57  A    between atoms: _133  and  _134
REMARK   58  A    between atoms: _137  and  _139
REMARK   59  A    between atoms: _139  and  _140
REMARK   60  A    between atoms: _139  and  _142
REMARK   61  A    between atoms: _142  and  _143
REMARK   62  A    between atoms: _146  and  _148
REMARK   63  A    between atoms: _148  and  _149
REMARK   64  A    between atoms: _148  and  _151
REMARK   65  A    between atoms: _151  and  _152
REMARK   66  A    between atoms: _155  and  _157
REMARK   67  A    between atoms: _157  and  _158
REMARK   68  A    between atoms: _157  and  _160
REMARK   69  A    between atoms: _160  and  _161
REMARK   70  A    between atoms: _166  and  _168
REMARK   71  A    between atoms: _168  and  _169
REMARK   72  A    between atoms: _172  and  _174
REMARK   73  A    between atoms: _174  and  _175
REMARK   74  A    between atoms: _174  and  _177
REMARK   75  A    between atoms: _177  and  _178
REMARK   76  A    between atoms: _181  and  _183
REMARK   77  A    between atoms: _183  and  _184
REMARK   78  A    between atoms: _183  and  _186
REMARK   79  A    between atoms: _189  and  _191
REMARK   80  A    between atoms: _191  and  _192
REMARK   81  A    between atoms: _191  and  _194
REMARK   82  A    between atoms: _194  and  _195
REMARK   83  A    between atoms: _195  and  _196
REMARK   84  A    between atoms: _196  and  _197
REMARK   85  A    between atoms: _206  and  _208
REMARK   86  A    between atoms: _208  and  _209
REMARK   87  A    between atoms: _208  and  _211
REMARK   88  A    between atoms: _211  and  _212
REMARK   89  A    between atoms: _215  and  _217
REMARK   90  A    between atoms: _217  and  _218
REMARK   91  A    between atoms: _217  and  _220
REMARK   92  A    between atoms: _220  and  _221
REMARK   93  A    between atoms: _224  and  _226
REMARK   94  A    between atoms: _226  and  _227
REMARK   95  A    between atoms: _226  and  _229
REMARK   96  A    between atoms: _229  and  _230
REMARK   97  A    between atoms: _230  and  _231
REMARK   98  A    between atoms: _236  and  _238
REMARK   99  A    between atoms: _238  and  _239
REMARK  100  A    between atoms: _238  and  _241
REMARK  101  A    between atoms: _244  and  _246
REMARK  102  A    between atoms: _246  and  _247
REMARK  103  A    between atoms: _246  and  _249
REMARK  104  A    between atoms: _249  and  _250
REMARK  105  A    between atoms: _253  and  _255
REMARK  106  A    between atoms: _255  and  _256
REMARK  107  A    between atoms: _255  and  _258
REMARK  108  A    between atoms: _258  and  _259
REMARK  109  A    between atoms: _259  and  _260
REMARK  110  A    between atoms: _263  and  _265
REMARK  111  A    between atoms: _265  and  _266
REMARK  112  A    between atoms: _265  and  _268
REMARK  113  A    between atoms: _268  and  _269
REMARK  114  A    between atoms: _272  and  _274
REMARK  115  A    between atoms: _274  and  _275
REMARK  116  A    between atoms: _274  and  _277
REMARK  117  A    between atoms: _277  and  _278
REMARK  118  A    between atoms: _281  and  _283
REMARK  119  A    between atoms: _283  and  _284
REMARK  120  A    between atoms: _283  and  _286
REMARK  121  A    between atoms: _286  and  _287
REMARK  122  A    between atoms: _292  and  _294
REMARK  123  A    between atoms: _294  and  _295
REMARK  124  A    between atoms: _298  and  _300
REMARK  125  A    between atoms: _300  and  _301
REMARK  126  A    between atoms: _300  and  _303
REMARK  127  A    between atoms: _303  and  _304
REMARK  128  A    between atoms: _307  and  _309
REMARK  129  A    between atoms: _309  and  _310
REMARK  130  A    between atoms: _309  and  _312
REMARK  131  A    between atoms: _315  and  _317
REMARK  132  A    between atoms: _317  and  _318
REMARK  133  A    between atoms: _317  and  _320
REMARK  134  A    between atoms: _320  and  _321
REMARK  135  A    between atoms: _321  and  _322
REMARK  136  A    between atoms: _322  and  _323
REMARK  137  A    between atoms: _332  and  _334
REMARK  138  A    between atoms: _334  and  _335
REMARK  139  A    between atoms: _334  and  _337
REMARK  140  A    between atoms: _337  and  _338
REMARK  141  A    between atoms: _341  and  _343
REMARK  142  A    between atoms: _343  and  _344
REMARK  143  A    between atoms: _343  and  _346
REMARK  144  A    between atoms: _346  and  _347
REMARK  145  A    between atoms: _350  and  _352
REMARK  146  A    between atoms: _352  and  _353
REMARK  147  A    between atoms: _352  and  _355
REMARK  148  A    between atoms: _355  and  _356
REMARK  149  A    between atoms: _356  and  _357
REMARK  150  A    between atoms: _357  and  _358
REMARK  151  A    between atoms: _367  and  _369
REMARK  152  A    between atoms: _369  and  _370
REMARK  153  A    between atoms: _369  and  _372
REMARK  154  A    between atoms: _372  and  _373
REMARK  155  A    between atoms: _373  and  _374
REMARK  156  A    between atoms: _379  and  _381
REMARK  157  A    between atoms: _381  and  _382
REMARK  158  A    between atoms: _381  and  _384
REMARK  159  A    between atoms: _387  and  _389
REMARK  160  A    between atoms: _389  and  _390
REMARK  161  A    between atoms: _389  and  _392
REMARK  162  A    between atoms: _392  and  _393
REMARK  163  A    between atoms: _396  and  _398
REMARK  164  A    between atoms: _398  and  _399
REMARK  165  A    between atoms: _398  and  _401
REMARK  166  A    between atoms: _401  and  _402
REMARK  167  A    between atoms: _402  and  _403
REMARK  168  A    between atoms: _406  and  _408
REMARK  169  A    between atoms: _408  and  _409
REMARK  170  A    between atoms: _408  and  _411
REMARK  171  A    between atoms: _411  and  _412
REMARK  172  A    between atoms: _415  and  _417
REMARK  173  A    between atoms: _417  and  _418
REMARK  174  A    between atoms: _417  and  _420
REMARK  175  A    between atoms: _420  and  _421
REMARK  176  A    between atoms: _424  and  _426
REMARK  177  A    between atoms: _426  and  _427
REMARK  178  A    between atoms: _426  and  _429
REMARK  179  A    between atoms: _429  and  _430
REMARK  180  A    between atoms: _435  and  _437
REMARK  181  A    between atoms: _437  and  _438
REMARK  182  A    between atoms: _441  and  _443
REMARK  183  A    between atoms: _443  and  _444
REMARK  184  A    between atoms: _443  and  _446
REMARK  185  A    between atoms: _446  and  _447
REMARK  186  A    between atoms: _450  and  _452
REMARK  187  A    between atoms: _452  and  _453
REMARK  188  A    between atoms: _452  and  _455
REMARK  189  A    between atoms: _458  and  _460
REMARK  190  A    between atoms: _460  and  _461
REMARK  191  A    between atoms: _460  and  _463
REMARK  192  A    between atoms: _463  and  _464
REMARK  193  A    between atoms: _464  and  _465
REMARK  194  A    between atoms: _465  and  _466
REMARK  195  A    between atoms: _475  and  _477
REMARK  196  A    between atoms: _477  and  _478
REMARK  197  A    between atoms: _477  and  _480
REMARK  198  A    between atoms: _480  and  _481
REMARK  199  A    between atoms: _484  and  _486
REMARK  200  A    between atoms: _486  and  _487
REMARK  201  A    between atoms: _486  and  _489
REMARK  202  A    between atoms: _489  and  _490
REMARK  203  A    between atoms: _493  and  _495
REMARK  204  A    between atoms: _495  and  _496
REMARK  205  A    between atoms: _495  and  _498
REMARK  206  A    between atoms: _498  and  _499
REMARK  207  A    between atoms: _499  and  _500
REMARK  208  A    between atoms: _505  and  _507
REMARK  209  A    between atoms: _507  and  _508
REMARK  210  A    between atoms: _507  and  _510
REMARK  211  A    between atoms: _513  and  _515
REMARK  212  A    between atoms: _515  and  _516
REMARK  213  A    between atoms: _515  and  _518
REMARK  214  A    between atoms: _518  and  _519
REMARK  215  A    between atoms: _522  and  _524
REMARK  216  A    between atoms: _524  and  _525
REMARK  217  A    between atoms: _524  and  _527
REMARK  218  A    between atoms: _527  and  _528
REMARK  219  A    between atoms: _528  and  _529
REMARK  220  A    between atoms: _532  and  _534
REMARK  221  A    between atoms: _534  and  _535
REMARK  222  A    between atoms: _534  and  _537
REMARK  223  A    between atoms: _537  and  _538
REMARK  224  A    between atoms: _541  and  _543
REMARK  225  A    between atoms: _543  and  _544
REMARK  226  A    between atoms: _543  and  _546
REMARK  227  A    between atoms: _546  and  _547
REMARK  228  A    between atoms: _550  and  _552
REMARK  229  A    between atoms: _552  and  _553
REMARK  230  A    between atoms: _552  and  _555
REMARK  231  A    between atoms: _555  and  _556
REMARK  232  A    between atoms: _561  and  _563
REMARK  233  A    between atoms: _563  and  _564
REMARK  234  A    between atoms: _567  and  _569
REMARK  235  A    between atoms: _569  and  _570
REMARK  236  A    between atoms: _569  and  _572
REMARK  237  A    between atoms: _572  and  _573
REMARK  238  A    between atoms: _576  and  _578
REMARK  239  A    between atoms: _578  and  _579
REMARK  240  A    between atoms: _578  and  _581
REMARK  241  A    between atoms: _584  and  _586
REMARK  242  A    between atoms: _586  and  _587
REMARK  243  A    between atoms: _586  and  _589
REMARK  244  A    between atoms: _589  and  _590
REMARK  245  A    between atoms: _590  and  _591
REMARK  246  A    between atoms: _591  and  _592
REMARK  247  A    between atoms: _601  and  _603
REMARK  248  A    between atoms: _603  and  _604
REMARK  249  A    between atoms: _603  and  _606
REMARK  250  A    between atoms: _606  and  _607
REMARK  251  A    between atoms: _610  and  _612
REMARK  252  A    between atoms: _612  and  _613
REMARK  253  A    between atoms: _612  and  _615
REMARK  254  A    between atoms: _615  and  _616
REMARK  255  A    between atoms: _619  and  _621
REMARK  256  A    between atoms: _621  and  _622
REMARK  257  A    between atoms: _621  and  _624
REMARK  258  A    between atoms: _624  and  _625
REMARK  259  A    between atoms: _625  and  _626
REMARK  260  A    between atoms: _631  and  _633
REMARK  261  A    between atoms: _633  and  _634
REMARK  262  A    between atoms: _633  and  _636
REMARK  263  A    between atoms: _639  and  _641
REMARK  264  A    between atoms: _641  and  _642
REMARK  265  A    between atoms: _641  and  _644
REMARK  266  A    between atoms: _644  and  _645
REMARK                            x       y       z     vdW  Elec       q    Type
REMARK                         _______ _______ _______ _____ _____    ______ ____
ROOT
ATOM      1  CA  GLN A   1      -2.035   6.510  14.925  0.00  0.00    +0.145 C 
ENDROOT
BRANCH   1   2
ATOM      2  C   GLN A   1      -1.551   6.044  16.295  0.00  0.00    +0.238 C 
ATOM      3  O   GLN A   1      -2.356   5.613  17.126  0.00  0.00    -0.274 OA
ATOM      4  N   VAL A   2      -0.247   6.116  16.541  0.00  0.00    -0.298 N 
ATOM      5  H   VAL A   2       0.403   6.479  15.814  0.00  0.00    +0.150 HD
BRANCH   4   6
ATOM      6  CA  VAL A   2       0.267   5.685  17.832  0.00  0.00    +0.137 C 
BRANCH   6   7
ATOM      7  CB  VAL A   2       1.820   5.714  17.889  0.00  0.00    +0.026 C 
ATOM      8  CG2 VAL A   2       2.321   7.144  17.826  0.00  0.00    +0.002 C 
ATOM      9  CG1 VAL A   2       2.401   4.895  16.746  0.00  0.00    +0.002 C 
ENDBRANCH   6   7
BRANCH   6  10
ATOM     10  C   VAL A   2      -0.287   6.615  18.905  0.00  0.00    +0.227 C 
ATOM     11  O   VAL A   2      -0.600   6.181  20.012  0.00  0.00    -0.286 OA
ENDBRANCH   6  10
ENDBRANCH   4   6
ENDBRANCH   1   2
BRANCH   1  12
ATOM     12  N   GLN A   1      -1.422   7.730  14.431  0.00  0.00    -0.238 NA
ATOM     13  H   GLN A   1      -0.970   7.731  13.494  0.00  0.00    +0.142 HD
ENDBRANCH   1  12
BRANCH   1  14
ATOM     14  CB  GLN A   1      -1.851   5.389  13.914  0.00  0.00    +0.036 C 
BRANCH  14  15
ATOM     15  CG  GLN A   1      -2.464   4.096  14.358  0.00  0.00    +0.087 C 
BRANCH  15  16
ATOM     16  CD  GLN A   1      -2.491   3.064  13.264  0.00  0.00    +0.219 C 
ATOM     17  NE2 GLN A   1      -1.563   2.120  13.325  0.00  0.00    -0.329 N 
ATOM     18 HE21 GLN A   1      -0.872   2.119  14.102  0.00  0.00    +0.145 HD
ATOM     19 HE22 GLN A   1      -1.526   1.380  12.595  0.00  0.00    +0.145 HD
ATOM     20  OE1 GLN A   1      -3.332   3.113  12.368  0.00  0.00    -0.275 OA
ENDBRANCH  15  16
ENDBRANCH  14  15
ENDBRANCH   1  14
TORSDOF 8
REMARK  Name = ../refined-set-2016/3v2q/3v2q_pocket.pdb
REMARK  266 active torsions:
REMARK  status: ('A' for Active; 'I' for Inactive)
REMARK    1  A    between atoms: _1  and  _3
REMARK    2  A    between atoms: _3  and  _4
REMARK    3  A    between atoms: _3  and  _6
REMARK    4  A    between atoms: _6  and  _7
REMARK    5  A    between atoms: _7  and  _8
REMARK    6  A    between atoms: _11  and  _13
REMARK    7  A    between atoms: _13  and  _14
REMARK    8  A    between atoms: _13  and  _16
REMARK    9  A    between atoms: _16  and  _17
REMARK   10  A    between atoms: _20  and  _22
REMARK   11  A    between atoms: _22  and  _23
REMARK   12  A    between atoms: _22  and  _25
REMARK   13  A    between atoms: _25  and  _26
REMARK   14  A    between atoms: _29  and  _31
REMARK   15  A    between atoms: _31  and  _32
REMARK   16  A    between atoms: _31  and  _34
REMARK   17  A    between atoms: _34  and  _35
REMARK   18  A    between atoms: _40  and  _42
REMARK   19  A    between atoms: _42  and  _43
REMARK   20  A    between atoms: _46  and  _48
REMARK   21  A    between atoms: _48  and  _49
REMARK   22  A    between atoms: _48  and  _51
REMARK   23  A    between atoms: _51  and  _52
REMARK   24  A    between atoms: _55  and  _57
REMARK   25  A    between atoms: _57  and  _58
REMARK   26  A    between atoms: _57  and  _60
REMARK   27  A    between atoms: _63  and  _65
REMARK   28  A    between atoms: _65  and  _66
REMARK   29  A    between atoms: _65  and  _68
REMARK   30  A    between atoms: _68  and  _69
REMARK   31  A    between atoms: _69  and  _70
REMARK   32  A    between atoms: _70  and  _71
REMARK   33  A    between atoms: _80  and  _82
REMARK   34  A    between atoms: _82  and  _83
REMARK   35  A    between atoms: _82  and  _85
REMARK   36  A    between atoms: _85  and  _86
REMARK   37  A    between atoms: _89  and  _91
REMARK   38  A    between atoms: _91  and  _92
REMARK   39  A    between atoms: _91  and  _94
REMARK   40  A    between atoms: _94  and  _95
REMARK   41  A    between atoms: _98  and  _100
REMARK   42  A    between atoms: _100  and  _101
REMARK   43  A    between atoms: _100  and  _103
REMARK   44  A    between atoms: _103  and  _104
REMARK   45  A    between atoms: _104  and  _105
REMARK   46  A    between atoms: _110  and  _112
REMARK   47  A    between atoms: _112  and  _113
REMARK   48  A    between atoms: _112  and  _115
REMARK   49  A    between atoms: _118  and  _120
REMARK   50  A    between atoms: _120  and  _121
REMARK   51  A    between atoms: _120  and  _123
REMARK   52  A    between atoms: _123  and  _124
REMARK   53  A    between atoms: _127  and  _129
REMARK   54  A    between atoms: _129  and  _130
REMARK   55  A    between atoms: _129  and  _132
REMARK   56  A    between atoms: _132  and  _133
REMARK   57  A    between atoms: _133  and  _134
REMARK   58  A    between atoms: _137  and  _139
REMARK   59  A    between atoms: _139  and  _140
REMARK   60  A    between atoms: _139  and  _142
REMARK   61  A    between atoms: _142  and  _143
REMARK   62  A    between atoms: _146  and  _148
REMARK   63  A    between atoms: _148  and  _149
REMARK   64  A    between atoms: _148  and  _151
REMARK   65  A    between atoms: _151  and  _152
REMARK   66  A    between atoms: _155  and  _157
REMARK   67  A    between atoms: _157  and  _158
REMARK   68  A    between atoms: _157  and  _160
REMARK   69  A    between atoms: _160  and  _161
REMARK   70  A    between atoms: _166  and  _168
REMARK   71  A    between atoms: _168  and  _169
REMARK   72  A    between atoms: _172  and  _174
REMARK   73  A    between atoms: _174  and  _175
REMARK   74  A    between atoms: _174  and  _177
REMARK   75  A    between atoms: _177  and  _178
REMARK   76  A    between atoms: _181  and  _183
REMARK   77  A    between atoms: _183  and  _184
REMARK   78  A    between atoms: _183  and  _186
REMARK   79  A    between atoms: _189  and  _191
REMARK   80  A    between atoms: _191  and  _192
REMARK   81  A    between atoms: _191  and  _194
REMARK   82  A    between atoms: _194  and  _195
REMARK   83  A    between atoms: _195  and  _196
REMARK   84  A    between atoms: _196  and  _197
REMARK   85  A    between atoms: _206  and  _208
REMARK   86  A    between atoms: _208  and  _209
REMARK   87  A    between atoms: _208  and  _211
REMARK   88  A    between atoms: _211  and  _212
REMARK   89  A    between atoms: _215  and  _217
REMARK   90  A    between atoms: _217  and  _218
REMARK   91  A    between atoms: _217  and  _220
REMARK   92  A    between atoms: _220  and  _221
REMARK   93  A    between atoms: _224  and  _226
REMARK   94  A    between atoms: _226  and  _227
REMARK   95  A    between atoms: _226  and  _229
REMARK   96  A    between atoms: _229  and  _230
REMARK   97  A    between atoms: _230  and  _231
REMARK   98  A    between atoms: _236  and  _238
REMARK   99  A    between atoms: _238  and  _239
REMARK  100  A    between atoms: _238  and  _241
REMARK  101  A    between atoms: _244  and  _246
REMARK  102  A    between atoms: _246  and  _247
REMARK  103  A    between atoms: _246  and  _249
REMARK  104  A    between atoms: _249  and  _250
REMARK  105  A    between atoms: _253  and  _255
REMARK  106  A    between atoms: _255  and  _256
REMARK  107  A    between atoms: _255  and  _258
REMARK  108  A    between atoms: _258  and  _259
REMARK  109  A    between atoms: _259  and  _260
REMARK  110  A    between atoms: _263  and  _265
REMARK  111  A    between atoms: _265  and  _266
REMARK  112  A    between atoms: _265  and  _268
REMARK  113  A    between atoms: _268  and  _269
REMARK  114  A    between atoms: _272  and  _274
REMARK  115  A    between atoms: _274  and  _275
REMARK  116  A    between atoms: _274  and  _277
REMARK  117  A    between atoms: _277  and  _278
REMARK  118  A    between atoms: _281  and  _283
REMARK  119  A    between atoms: _283  and  _284
REMARK  120  A    between atoms: _283  and  _286
REMARK  121  A    between atoms: _286  and  _287
REMARK  122  A    between atoms: _292  and  _294
REMARK  123  A    between atoms: _294  and  _295
REMARK  124  A    between atoms: _298  and  _300
REMARK  125  A    between atoms: _300  and  _301
REMARK  126  A    between atoms: _300  and  _303
REMARK  127  A    between atoms: _303  and  _304
REMARK  128  A    between atoms: _307  and  _309
REMARK  129  A    between atoms: _309  and  _310
REMARK  130  A    between atoms: _309  and  _312
REMARK  131  A    between atoms: _315  and  _317
REMARK  132  A    between atoms: _317  and  _318
REMARK  133  A    between atoms: _317  and  _320
REMARK  134  A    between atoms: _320  and  _321
REMARK  135  A    between atoms: _321  and  _322
REMARK  136  A    between atoms: _322  and  _323
REMARK  137  A    between atoms: _332  and  _334
REMARK  138  A    between atoms: _334  and  _335
REMARK  139  A    between atoms: _334  and  _337
REMARK  140  A    between atoms: _337  and  _338
REMARK  141  A    between atoms: _341  and  _343
REMARK  142  A    between atoms: _343  and  _344
REMARK  143  A    between atoms: _343  and  _346
REMARK  144  A    between atoms: _346  and  _347
REMARK  145  A    between atoms: _350  and  _352
REMARK  146  A    between atoms: _352  and  _353
REMARK  147  A    between atoms: _352  and  _355
REMARK  148  A    between atoms: _355  and  _356
REMARK  149  A    between atoms: _356  and  _357
REMARK  150  A    between atoms: _357  and  _358
REMARK  151  A    between atoms: _367  and  _369
REMARK  152  A    between atoms: _369  and  _370
REMARK  153  A    between atoms: _369  and  _372
REMARK  154  A    between atoms: _372  and  _373
REMARK  155  A    between atoms: _373  and  _374
REMARK  156  A    between atoms: _379  and  _381
REMARK  157  A    between atoms: _381  and  _382
REMARK  158  A    between atoms: _381  and  _384
REMARK  159  A    between atoms: _387  and  _389
REMARK  160  A    between atoms: _389  and  _390
REMARK  161  A    between atoms: _389  and  _392
REMARK  162  A    between atoms: _392  and  _393
REMARK  163  A    between atoms: _396  and  _398
REMARK  164  A    between atoms: _398  and  _399
REMARK  165  A    between atoms: _398  and  _401
REMARK  166  A    between atoms: _401  and  _402
REMARK  167  A    between atoms: _402  and  _403
REMARK  168  A    between atoms: _406  and  _408
REMARK  169  A    between atoms: _408  and  _409
REMARK  170  A    between atoms: _408  and  _411
REMARK  171  A    between atoms: _411  and  _412
REMARK  172  A    between atoms: _415  and  _417
REMARK  173  A    between atoms: _417  and  _418
REMARK  174  A    between atoms: _417  and  _420
REMARK  175  A    between atoms: _420  and  _421
REMARK  176  A    between atoms: _424  and  _426
REMARK  177  A    between atoms: _426  and  _427
REMARK  178  A    between atoms: _426  and  _429
REMARK  179  A    between atoms: _429  and  _430
REMARK  180  A    between atoms: _435  and  _437
REMARK  181  A    between atoms: _437  and  _438
REMARK  182  A    between atoms: _441  and  _443
REMARK  183  A    between atoms: _443  and  _444
REMARK  184  A    between atoms: _443  and  _446
REMARK  185  A    between atoms: _446  and  _447
REMARK  186  A    between atoms: _450  and  _452
REMARK  187  A    between atoms: _452  and  _453
REMARK  188  A    between atoms: _452  and  _455
REMARK  189  A    between atoms: _458  and  _460
REMARK  190  A    between atoms: _460  and  _461
REMARK  191  A    between atoms: _460  and  _463
REMARK  192  A    between atoms: _463  and  _464
REMARK  193  A    between atoms: _464  and  _465
REMARK  194  A    between atoms: _465  and  _466
REMARK  195  A    between atoms: _475  and  _477
REMARK  196  A    between atoms: _477  and  _478
REMARK  197  A    between atoms: _477  and  _480
REMARK  198  A    between atoms: _480  and  _481
REMARK  199  A    between atoms: _484  and  _486
REMARK  200  A    between atoms: _486  and  _487
REMARK  201  A    between atoms: _486  and  _489
REMARK  202  A    between atoms: _489  and  _490
REMARK  203  A    between atoms: _493  and  _495
REMARK  204  A    between atoms: _495  and  _496
REMARK  205  A    between atoms: _495  and  _498
REMARK  206  A    between atoms: _498  and  _499
REMARK  207  A    between atoms: _499  and  _500
REMARK  208  A    between atoms: _505  and  _507
REMARK  209  A    between atoms: _507  and  _508
REMARK  210  A    between atoms: _507  and  _510
REMARK  211  A    between atoms: _513  and  _515
REMARK  212  A    between atoms: _515  and  _516
REMARK  213  A    between atoms: _515  and  _518
REMARK  214  A    between atoms: _518  and  _519
REMARK  215  A    between atoms: _522  and  _524
REMARK  216  A    between atoms: _524  and  _525
REMARK  217  A    between atoms: _524  and  _527
REMARK  218  A    between atoms: _527  and  _528
REMARK  219  A    between atoms: _528  and  _529
REMARK  220  A    between atoms: _532  and  _534
REMARK  221  A    between atoms: _534  and  _535
REMARK  222  A    between atoms: _534  and  _537
REMARK  223  A    between atoms: _537  and  _538
REMARK  224  A    between atoms: _541  and  _543
REMARK  225  A    between atoms: _543  and  _544
REMARK  226  A    between atoms: _543  and  _546
REMARK  227  A    between atoms: _546  and  _547
REMARK  228  A    between atoms: _550  and  _552
REMARK  229  A    between atoms: _552  and  _553
REMARK  230  A    between atoms: _552  and  _555
REMARK  231  A    between atoms: _555  and  _556
REMARK  232  A    between atoms: _561  and  _563
REMARK  233  A    between atoms: _563  and  _564
REMARK  234  A    between atoms: _567  and  _569
REMARK  235  A    between atoms: _569  and  _570
REMARK  236  A    between atoms: _569  and  _572
REMARK  237  A    between atoms: _572  and  _573
REMARK  238  A    between atoms: _576  and  _578
REMARK  239  A    between atoms: _578  and  _579
REMARK  240  A    between atoms: _578  and  _581
REMARK  241  A    between atoms: _584  and  _586
REMARK  242  A    between atoms: _586  and  _587
REMARK  243  A    between atoms: _586  and  _589
REMARK  244  A    between atoms: _589  and  _590
REMARK  245  A    between atoms: _590  and  _591
REMARK  246  A    between atoms: _591  and  _592
REMARK  247  A    between atoms: _601  and  _603
REMARK  248  A    between atoms: _603  and  _604
REMARK  249  A    between atoms: _603  and  _606
REMARK  250  A    between atoms: _606  and  _607
REMARK  251  A    between atoms: _610  and  _612
REMARK  252  A    between atoms: _612  and  _613
REMARK  253  A    between atoms: _612  and  _615
REMARK  254  A    between atoms: _615  and  _616
REMARK  255  A    between atoms: _619  and  _621
REMARK  256  A    between atoms: _621  and  _622
REMARK  257  A    between atoms: _621  and  _624
REMARK  258  A    between atoms: _624  and  _625
REMARK  259  A    between atoms: _625  and  _626
REMARK  260  A    between atoms: _631  and  _633
REMARK  261  A    between atoms: _633  and  _634
REMARK  262  A    between atoms: _633  and  _636
REMARK  263  A    between atoms: _639  and  _641
REMARK  264  A    between atoms: _641  and  _642
REMARK  265  A    between atoms: _641  and  _644
REMARK  266  A    between atoms: _644  and  _645
REMARK                            x       y       z     vdW  Elec       q    Type
REMARK                         _______ _______ _______ _____ _____    ______ ____
ROOT
ATOM      1  CA  ILE A   1      -3.741   4.293  20.495  0.00  0.00    +0.133 C 
ENDROOT
BRANCH   1   2
ATOM      2  N   ILE A   1      -3.796   5.509  19.707  0.00  0.00    -0.239 NA
ATOM      3  H   ILE A   1      -3.188   5.610  18.869  0.00  0.00    +0.142 HD
ENDBRANCH   1   2
BRANCH   1   4
ATOM      4  C   ILE A   1      -3.353   4.618  21.939  0.00  0.00    +0.224 C 
ATOM      5  O   ILE A   1      -3.982   4.117  22.876  0.00  0.00    -0.287 OA
ENDBRANCH   1   4
BRANCH   1   6
ATOM      6  CB  ILE A   1      -2.749   3.285  19.879  0.00  0.00    +0.023 C 
ATOM      7  CG2 ILE A   1      -2.400   2.195  20.896  0.00  0.00    +0.002 C 
BRANCH   6   8
ATOM      8  CG1 ILE A   1      -3.362   2.707  18.597  0.00  0.00    +0.002 C 
ATOM      9  CD1 ILE A   1      -2.404   1.906  17.758  0.00  0.00    +0.000 C 
ENDBRANCH   6   8
ENDBRANCH   1   6
TORSDOF 4
REMARK  Name = ../refined-set-2016/3v2q/3v2q_pocket.pdb
REMARK  266 active torsions:
REMARK  status: ('A' for Active; 'I' for Inactive)
REMARK    1  A    between atoms: _1  and  _3
REMARK    2  A    between atoms: _3  and  _4
REMARK    3  A    between atoms: _3  and  _6
REMARK    4  A    between atoms: _6  and  _7
REMARK    5  A    between atoms: _7  and  _8
REMARK    6  A    between atoms: _11  and  _13
REMARK    7  A    between atoms: _13  and  _14
REMARK    8  A    between atoms: _13  and  _16
REMARK    9  A    between atoms: _16  and  _17
REMARK   10  A    between atoms: _20  and  _22
REMARK   11  A    between atoms: _22  and  _23
REMARK   12  A    between atoms: _22  and  _25
REMARK   13  A    between atoms: _25  and  _26
REMARK   14  A    between atoms: _29  and  _31
REMARK   15  A    between atoms: _31  and  _32
REMARK   16  A    between atoms: _31  and  _34
REMARK   17  A    between atoms: _34  and  _35
REMARK   18  A    between atoms: _40  and  _42
REMARK   19  A    between atoms: _42  and  _43
REMARK   20  A    between atoms: _46  and  _48
REMARK   21  A    between atoms: _48  and  _49
REMARK   22  A    between atoms: _48  and  _51
REMARK   23  A    between atoms: _51  and  _52
REMARK   24  A    between atoms: _55  and  _57
REMARK   25  A    between atoms: _57  and  _58
REMARK   26  A    between atoms: _57  and  _60
REMARK   27  A    between atoms: _63  and  _65
REMARK   28  A    between atoms: _65  and  _66
REMARK   29  A    between atoms: _65  and  _68
REMARK   30  A    between atoms: _68  and  _69
REMARK   31  A    between atoms: _69  and  _70
REMARK   32  A    between atoms: _70  and  _71
REMARK   33  A    between atoms: _80  and  _82
REMARK   34  A    between atoms: _82  and  _83
REMARK   35  A    between atoms: _82  and  _85
REMARK   36  A    between atoms: _85  and  _86
REMARK   37  A    between atoms: _89  and  _91
REMARK   38  A    between atoms: _91  and  _92
REMARK   39  A    between atoms: _91  and  _94
REMARK   40  A    between atoms: _94  and  _95
REMARK   41  A    between atoms: _98  and  _100
REMARK   42  A    between atoms: _100  and  _101
REMARK   43  A    between atoms: _100  and  _103
REMARK   44  A    between atoms: _103  and  _104
REMARK   45  A    between atoms: _104  and  _105
REMARK   46  A    between atoms: _110  and  _112
REMARK   47  A    between atoms: _112  and  _113
REMARK   48  A    between atoms: _112  and  _115
REMARK   49  A    between atoms: _118  and  _120
REMARK   50  A    between atoms: _120  and  _121
REMARK   51  A    between atoms: _120  and  _123
REMARK   52  A    between atoms: _123  and  _124
REMARK   53  A    between atoms: _127  and  _129
REMARK   54  A    between atoms: _129  and  _130
REMARK   55  A    between atoms: _129  and  _132
REMARK   56  A    between atoms: _132  and  _133
REMARK   57  A    between atoms: _133  and  _134
REMARK   58  A    between atoms: _137  and  _139
REMARK   59  A    between atoms: _139  and  _140
REMARK   60  A    between atoms: _139  and  _142
REMARK   61  A    between atoms: _142  and  _143
REMARK   62  A    between atoms: _146  and  _148
REMARK   63  A    between atoms: _148  and  _149
REMARK   64  A    between atoms: _148  and  _151
REMARK   65  A    between atoms: _151  and  _152
REMARK   66  A    between atoms: _155  and  _157
REMARK   67  A    between atoms: _157  and  _158
REMARK   68  A    between atoms: _157  and  _160
REMARK   69  A    between atoms: _160  and  _161
REMARK   70  A    between atoms: _166  and  _168
REMARK   71  A    between atoms: _168  and  _169
REMARK   72  A    between atoms: _172  and  _174
REMARK   73  A    between atoms: _174  and  _175
REMARK   74  A    between atoms: _174  and  _177
REMARK   75  A    between atoms: _177  and  _178
REMARK   76  A    between atoms: _181  and  _183
REMARK   77  A    between atoms: _183  and  _184
REMARK   78  A    between atoms: _183  and  _186
REMARK   79  A    between atoms: _189  and  _191
REMARK   80  A    between atoms: _191  and  _192
REMARK   81  A    between atoms: _191  and  _194
REMARK   82  A    between atoms: _194  and  _195
REMARK   83  A    between atoms: _195  and  _196
REMARK   84  A    between atoms: _196  and  _197
REMARK   85  A    between atoms: _206  and  _208
REMARK   86  A    between atoms: _208  and  _209
REMARK   87  A    between atoms: _208  and  _211
REMARK   88  A    between atoms: _211  and  _212
REMARK   89  A    between atoms: _215  and  _217
REMARK   90  A    between atoms: _217  and  _218
REMARK   91  A    between atoms: _217  and  _220
REMARK   92  A    between atoms: _220  and  _221
REMARK   93  A    between atoms: _224  and  _226
REMARK   94  A    between atoms: _226  and  _227
REMARK   95  A    between atoms: _226  and  _229
REMARK   96  A    between atoms: _229  and  _230
REMARK   97  A    between atoms: _230  and  _231
REMARK   98  A    between atoms: _236  and  _238
REMARK   99  A    between atoms: _238  and  _239
REMARK  100  A    between atoms: _238  and  _241
REMARK  101  A    between atoms: _244  and  _246
REMARK  102  A    between atoms: _246  and  _247
REMARK  103  A    between atoms: _246  and  _249
REMARK  104  A    between atoms: _249  and  _250
REMARK  105  A    between atoms: _253  and  _255
REMARK  106  A    between atoms: _255  and  _256
REMARK  107  A    between atoms: _255  and  _258
REMARK  108  A    between atoms: _258  and  _259
REMARK  109  A    between atoms: _259  and  _260
REMARK  110  A    between atoms: _263  and  _265
REMARK  111  A    between atoms: _265  and  _266
REMARK  112  A    between atoms: _265  and  _268
REMARK  113  A    between atoms: _268  and  _269
REMARK  114  A    between atoms: _272  and  _274
REMARK  115  A    between atoms: _274  and  _275
REMARK  116  A    between atoms: _274  and  _277
REMARK  117  A    between atoms: _277  and  _278
REMARK  118  A    between atoms: _281  and  _283
REMARK  119  A    between atoms: _283  and  _284
REMARK  120  A    between atoms: _283  and  _286
REMARK  121  A    between atoms: _286  and  _287
REMARK  122  A    between atoms: _292  and  _294
REMARK  123  A    between atoms: _294  and  _295
REMARK  124  A    between atoms: _298  and  _300
REMARK  125  A    between atoms: _300  and  _301
REMARK  126  A    between atoms: _300  and  _303
REMARK  127  A    between atoms: _303  and  _304
REMARK  128  A    between atoms: _307  and  _309
REMARK  129  A    between atoms: _309  and  _310
REMARK  130  A    between atoms: _309  and  _312
REMARK  131  A    between atoms: _315  and  _317
REMARK  132  A    between atoms: _317  and  _318
REMARK  133  A    between atoms: _317  and  _320
REMARK  134  A    between atoms: _320  and  _321
REMARK  135  A    between atoms: _321  and  _322
REMARK  136  A    between atoms: _322  and  _323
REMARK  137  A    between atoms: _332  and  _334
REMARK  138  A    between atoms: _334  and  _335
REMARK  139  A    between atoms: _334  and  _337
REMARK  140  A    between atoms: _337  and  _338
REMARK  141  A    between atoms: _341  and  _343
REMARK  142  A    between atoms: _343  and  _344
REMARK  143  A    between atoms: _343  and  _346
REMARK  144  A    between atoms: _346  and  _347
REMARK  145  A    between atoms: _350  and  _352
REMARK  146  A    between atoms: _352  and  _353
REMARK  147  A    between atoms: _352  and  _355
REMARK  148  A    between atoms: _355  and  _356
REMARK  149  A    between atoms: _356  and  _357
REMARK  150  A    between atoms: _357  and  _358
REMARK  151  A    between atoms: _367  and  _369
REMARK  152  A    between atoms: _369  and  _370
REMARK  153  A    between atoms: _369  and  _372
REMARK  154  A    between atoms: _372  and  _373
REMARK  155  A    between atoms: _373  and  _374
REMARK  156  A    between atoms: _379  and  _381
REMARK  157  A    between atoms: _381  and  _382
REMARK  158  A    between atoms: _381  and  _384
REMARK  159  A    between atoms: _387  and  _389
REMARK  160  A    between atoms: _389  and  _390
REMARK  161  A    between atoms: _389  and  _392
REMARK  162  A    between atoms: _392  and  _393
REMARK  163  A    between atoms: _396  and  _398
REMARK  164  A    between atoms: _398  and  _399
REMARK  165  A    between atoms: _398  and  _401
REMARK  166  A    between atoms: _401  and  _402
REMARK  167  A    between atoms: _402  and  _403
REMARK  168  A    between atoms: _406  and  _408
REMARK  169  A    between atoms: _408  and  _409
REMARK  170  A    between atoms: _408  and  _411
REMARK  171  A    between atoms: _411  and  _412
REMARK  172  A    between atoms: _415  and  _417
REMARK  173  A    between atoms: _417  and  _418
REMARK  174  A    between atoms: _417  and  _420
REMARK  175  A    between atoms: _420  and  _421
REMARK  176  A    between atoms: _424  and  _426
REMARK  177  A    between atoms: _426  and  _427
REMARK  178  A    between atoms: _426  and  _429
REMARK  179  A    between atoms: _429  and  _430
REMARK  180  A    between atoms: _435  and  _437
REMARK  181  A    between atoms: _437  and  _438
REMARK  182  A    between atoms: _441  and  _443
REMARK  183  A    between atoms: _443  and  _444
REMARK  184  A    between atoms: _443  and  _446
REMARK  185  A    between atoms: _446  and  _447
REMARK  186  A    between atoms: _450  and  _452
REMARK  187  A    between atoms: _452  and  _453
REMARK  188  A    between atoms: _452  and  _455
REMARK  189  A    between atoms: _458  and  _460
REMARK  190  A    between atoms: _460  and  _461
REMARK  191  A    between atoms: _460  and  _463
REMARK  192  A    between atoms: _463  and  _464
REMARK  193  A    between atoms: _464  and  _465
REMARK  194  A    between atoms: _465  and  _466
REMARK  195  A    between atoms: _475  and  _477
REMARK  196  A    between atoms: _477  and  _478
REMARK  197  A    between atoms: _477  and  _480
REMARK  198  A    between atoms: _480  and  _481
REMARK  199  A    between atoms: _484  and  _486
REMARK  200  A    between atoms: _486  and  _487
REMARK  201  A    between atoms: _486  and  _489
REMARK  202  A    between atoms: _489  and  _490
REMARK  203  A    between atoms: _493  and  _495
REMARK  204  A    between atoms: _495  and  _496
REMARK  205  A    between atoms: _495  and  _498
REMARK  206  A    between atoms: _498  and  _499
REMARK  207  A    between atoms: _499  and  _500
REMARK  208  A    between atoms: _505  and  _507
REMARK  209  A    between atoms: _507  and  _508
REMARK  210  A    between atoms: _507  and  _510
REMARK  211  A    between atoms: _513  and  _515
REMARK  212  A    between atoms: _515  and  _516
REMARK  213  A    between atoms: _515  and  _518
REMARK  214  A    between atoms: _518  and  _519
REMARK  215  A    between atoms: _522  and  _524
REMARK  216  A    between atoms: _524  and  _525
REMARK  217  A    between atoms: _524  and  _527
REMARK  218  A    between atoms: _527  and  _528
REMARK  219  A    between atoms: _528  and  _529
REMARK  220  A    between atoms: _532  and  _534
REMARK  221  A    between atoms: _534  and  _535
REMARK  222  A    between atoms: _534  and  _537
REMARK  223  A    between atoms: _537  and  _538
REMARK  224  A    between atoms: _541  and  _543
REMARK  225  A    between atoms: _543  and  _544
REMARK  226  A    between atoms: _543  and  _546
REMARK  227  A    between atoms: _546  and  _547
REMARK  228  A    between atoms: _550  and  _552
REMARK  229  A    between atoms: _552  and  _553
REMARK  230  A    between atoms: _552  and  _555
REMARK  231  A    between atoms: _555  and  _556
REMARK  232  A    between atoms: _561  and  _563
REMARK  233  A    between atoms: _563  and  _564
REMARK  234  A    between atoms: _567  and  _569
REMARK  235  A    between atoms: _569  and  _570
REMARK  236  A    between atoms: _569  and  _572
REMARK  237  A    between atoms: _572  and  _573
REMARK  238  A    between atoms: _576  and  _578
REMARK  239  A    between atoms: _578  and  _579
REMARK  240  A    between atoms: _578  and  _581
REMARK  241  A    between atoms: _584  and  _586
REMARK  242  A    between atoms: _586  and  _587
REMARK  243  A    between atoms: _586  and  _589
REMARK  244  A    between atoms: _589  and  _590
REMARK  245  A    between atoms: _590  and  _591
REMARK  246  A    between atoms: _591  and  _592
REMARK  247  A    between atoms: _601  and  _603
REMARK  248  A    between atoms: _603  and  _604
REMARK  249  A    between atoms: _603  and  _606
REMARK  250  A    between atoms: _606  and  _607
REMARK  251  A    between atoms: _610  and  _612
REMARK  252  A    between atoms: _612  and  _613
REMARK  253  A    between atoms: _612  and  _615
REMARK  254  A    between atoms: _615  and  _616
REMARK  255  A    between atoms: _619  and  _621
REMARK  256  A    between atoms: _621  and  _622
REMARK  257  A    between atoms: _621  and  _624
REMARK  258  A    between atoms: _624  and  _625
REMARK  259  A    between atoms: _625  and  _626
REMARK  260  A    between atoms: _631  and  _633
REMARK  261  A    between atoms: _633  and  _634
REMARK  262  A    between atoms: _633  and  _636
REMARK  263  A    between atoms: _639  and  _641
REMARK  264  A    between atoms: _641  and  _642
REMARK  265  A    between atoms: _641  and  _644
REMARK  266  A    between atoms: _644  and  _645
REMARK                            x       y       z     vdW  Elec       q    Type
REMARK                         _______ _______ _______ _____ _____    ______ ____
ROOT
ATOM      1  O   HOH     1       0.542   2.648  10.814  0.00  0.00    +0.000 OA
ENDROOT
TORSDOF 0
REMARK  Name = ../refined-set-2016/3v2q/3v2q_pocket.pdb
REMARK  266 active torsions:
REMARK  status: ('A' for Active; 'I' for Inactive)
REMARK    1  A    between atoms: _1  and  _3
REMARK    2  A    between atoms: _3  and  _4
REMARK    3  A    between atoms: _3  and  _6
REMARK    4  A    between atoms: _6  and  _7
REMARK    5  A    between atoms: _7  and  _8
REMARK    6  A    between atoms: _11  and  _13
REMARK    7  A    between atoms: _13  and  _14
REMARK    8  A    between atoms: _13  and  _16
REMARK    9  A    between atoms: _16  and  _17
REMARK   10  A    between atoms: _20  and  _22
REMARK   11  A    between atoms: _22  and  _23
REMARK   12  A    between atoms: _22  and  _25
REMARK   13  A    between atoms: _25  and  _26
REMARK   14  A    between atoms: _29  and  _31
REMARK   15  A    between atoms: _31  and  _32
REMARK   16  A    between atoms: _31  and  _34
REMARK   17  A    between atoms: _34  and  _35
REMARK   18  A    between atoms: _40  and  _42
REMARK   19  A    between atoms: _42  and  _43
REMARK   20  A    between atoms: _46  and  _48
REMARK   21  A    between atoms: _48  and  _49
REMARK   22  A    between atoms: _48  and  _51
REMARK   23  A    between atoms: _51  and  _52
REMARK   24  A    between atoms: _55  and  _57
REMARK   25  A    between atoms: _57  and  _58
REMARK   26  A    between atoms: _57  and  _60
REMARK   27  A    between atoms: _63  and  _65
REMARK   28  A    between atoms: _65  and  _66
REMARK   29  A    between atoms: _65  and  _68
REMARK   30  A    between atoms: _68  and  _69
REMARK   31  A    between atoms: _69  and  _70
REMARK   32  A    between atoms: _70  and  _71
REMARK   33  A    between atoms: _80  and  _82
REMARK   34  A    between atoms: _82  and  _83
REMARK   35  A    between atoms: _82  and  _85
REMARK   36  A    between atoms: _85  and  _86
REMARK   37  A    between atoms: _89  and  _91
REMARK   38  A    between atoms: _91  and  _92
REMARK   39  A    between atoms: _91  and  _94
REMARK   40  A    between atoms: _94  and  _95
REMARK   41  A    between atoms: _98  and  _100
REMARK   42  A    between atoms: _100  and  _101
REMARK   43  A    between atoms: _100  and  _103
REMARK   44  A    between atoms: _103  and  _104
REMARK   45  A    between atoms: _104  and  _105
REMARK   46  A    between atoms: _110  and  _112
REMARK   47  A    between atoms: _112  and  _113
REMARK   48  A    between atoms: _112  and  _115
REMARK   49  A    between atoms: _118  and  _120
REMARK   50  A    between atoms: _120  and  _121
REMARK   51  A    between atoms: _120  and  _123
REMARK   52  A    between atoms: _123  and  _124
REMARK   53  A    between atoms: _127  and  _129
REMARK   54  A    between atoms: _129  and  _130
REMARK   55  A    between atoms: _129  and  _132
REMARK   56  A    between atoms: _132  and  _133
REMARK   57  A    between atoms: _133  and  _134
REMARK   58  A    between atoms: _137  and  _139
REMARK   59  A    between atoms: _139  and  _140
REMARK   60  A    between atoms: _139  and  _142
REMARK   61  A    between atoms: _142  and  _143
REMARK   62  A    between atoms: _146  and  _148
REMARK   63  A    between atoms: _148  and  _149
REMARK   64  A    between atoms: _148  and  _151
REMARK   65  A    between atoms: _151  and  _152
REMARK   66  A    between atoms: _155  and  _157
REMARK   67  A    between atoms: _157  and  _158
REMARK   68  A    between atoms: _157  and  _160
REMARK   69  A    between atoms: _160  and  _161
REMARK   70  A    between atoms: _166  and  _168
REMARK   71  A    between atoms: _168  and  _169
REMARK   72  A    between atoms: _172  and  _174
REMARK   73  A    between atoms: _174  and  _175
REMARK   74  A    between atoms: _174  and  _177
REMARK   75  A    between atoms: _177  and  _178
REMARK   76  A    between atoms: _181  and  _183
REMARK   77  A    between atoms: _183  and  _184
REMARK   78  A    between atoms: _183  and  _186
REMARK   79  A    between atoms: _189  and  _191
REMARK   80  A    between atoms: _191  and  _192
REMARK   81  A    between atoms: _191  and  _194
REMARK   82  A    between atoms: _194  and  _195
REMARK   83  A    between atoms: _195  and  _196
REMARK   84  A    between atoms: _196  and  _197
REMARK   85  A    between atoms: _206  and  _208
REMARK   86  A    between atoms: _208  and  _209
REMARK   87  A    between atoms: _208  and  _211
REMARK   88  A    between atoms: _211  and  _212
REMARK   89  A    between atoms: _215  and  _217
REMARK   90  A    between atoms: _217  and  _218
REMARK   91  A    between atoms: _217  and  _220
REMARK   92  A    between atoms: _220  and  _221
REMARK   93  A    between atoms: _224  and  _226
REMARK   94  A    between atoms: _226  and  _227
REMARK   95  A    between atoms: _226  and  _229
REMARK   96  A    between atoms: _229  and  _230
REMARK   97  A    between atoms: _230  and  _231
REMARK   98  A    between atoms: _236  and  _238
REMARK   99  A    between atoms: _238  and  _239
REMARK  100  A    between atoms: _238  and  _241
REMARK  101  A    between atoms: _244  and  _246
REMARK  102  A    between atoms: _246  and  _247
REMARK  103  A    between atoms: _246  and  _249
REMARK  104  A    between atoms: _249  and  _250
REMARK  105  A    between atoms: _253  and  _255
REMARK  106  A    between atoms: _255  and  _256
REMARK  107  A    between atoms: _255  and  _258
REMARK  108  A    between atoms: _258  and  _259
REMARK  109  A    between atoms: _259  and  _260
REMARK  110  A    between atoms: _263  and  _265
REMARK  111  A    between atoms: _265  and  _266
REMARK  112  A    between atoms: _265  and  _268
REMARK  113  A    between atoms: _268  and  _269
REMARK  114  A    between atoms: _272  and  _274
REMARK  115  A    between atoms: _274  and  _275
REMARK  116  A    between atoms: _274  and  _277
REMARK  117  A    between atoms: _277  and  _278
REMARK  118  A    between atoms: _281  and  _283
REMARK  119  A    between atoms: _283  and  _284
REMARK  120  A    between atoms: _283  and  _286
REMARK  121  A    between atoms: _286  and  _287
REMARK  122  A    between atoms: _292  and  _294
REMARK  123  A    between atoms: _294  and  _295
REMARK  124  A    between atoms: _298  and  _300
REMARK  125  A    between atoms: _300  and  _301
REMARK  126  A    between atoms: _300  and  _303
REMARK  127  A    between atoms: _303  and  _304
REMARK  128  A    between atoms: _307  and  _309
REMARK  129  A    between atoms: _309  and  _310
REMARK  130  A    between atoms: _309  and  _312
REMARK  131  A    between atoms: _315  and  _317
REMARK  132  A    between atoms: _317  and  _318
REMARK  133  A    between atoms: _317  and  _320
REMARK  134  A    between atoms: _320  and  _321
REMARK  135  A    between atoms: _321  and  _322
REMARK  136  A    between atoms: _322  and  _323
REMARK  137  A    between atoms: _332  and  _334
REMARK  138  A    between atoms: _334  and  _335
REMARK  139  A    between atoms: _334  and  _337
REMARK  140  A    between atoms: _337  and  _338
REMARK  141  A    between atoms: _341  and  _343
REMARK  142  A    between atoms: _343  and  _344
REMARK  143  A    between atoms: _343  and  _346
REMARK  144  A    between atoms: _346  and  _347
REMARK  145  A    between atoms: _350  and  _352
REMARK  146  A    between atoms: _352  and  _353
REMARK  147  A    between atoms: _352  and  _355
REMARK  148  A    between atoms: _355  and  _356
REMARK  149  A    between atoms: _356  and  _357
REMARK  150  A    between atoms: _357  and  _358
REMARK  151  A    between atoms: _367  and  _369
REMARK  152  A    between atoms: _369  and  _370
REMARK  153  A    between atoms: _369  and  _372
REMARK  154  A    between atoms: _372  and  _373
REMARK  155  A    between atoms: _373  and  _374
REMARK  156  A    between atoms: _379  and  _381
REMARK  157  A    between atoms: _381  and  _382
REMARK  158  A    between atoms: _381  and  _384
REMARK  159  A    between atoms: _387  and  _389
REMARK  160  A    between atoms: _389  and  _390
REMARK  161  A    between atoms: _389  and  _392
REMARK  162  A    between atoms: _392  and  _393
REMARK  163  A    between atoms: _396  and  _398
REMARK  164  A    between atoms: _398  and  _399
REMARK  165  A    between atoms: _398  and  _401
REMARK  166  A    between atoms: _401  and  _402
REMARK  167  A    between atoms: _402  and  _403
REMARK  168  A    between atoms: _406  and  _408
REMARK  169  A    between atoms: _408  and  _409
REMARK  170  A    between atoms: _408  and  _411
REMARK  171  A    between atoms: _411  and  _412
REMARK  172  A    between atoms: _415  and  _417
REMARK  173  A    between atoms: _417  and  _418
REMARK  174  A    between atoms: _417  and  _420
REMARK  175  A    between atoms: _420  and  _421
REMARK  176  A    between atoms: _424  and  _426
REMARK  177  A    between atoms: _426  and  _427
REMARK  178  A    between atoms: _426  and  _429
REMARK  179  A    between atoms: _429  and  _430
REMARK  180  A    between atoms: _435  and  _437
REMARK  181  A    between atoms: _437  and  _438
REMARK  182  A    between atoms: _441  and  _443
REMARK  183  A    between atoms: _443  and  _444
REMARK  184  A    between atoms: _443  and  _446
REMARK  185  A    between atoms: _446  and  _447
REMARK  186  A    between atoms: _450  and  _452
REMARK  187  A    between atoms: _452  and  _453
REMARK  188  A    between atoms: _452  and  _455
REMARK  189  A    between atoms: _458  and  _460
REMARK  190  A    between atoms: _460  and  _461
REMARK  191  A    between atoms: _460  and  _463
REMARK  192  A    between atoms: _463  and  _464
REMARK  193  A    between atoms: _464  and  _465
REMARK  194  A    between atoms: _465  and  _466
REMARK  195  A    between atoms: _475  and  _477
REMARK  196  A    between atoms: _477  and  _478
REMARK  197  A    between atoms: _477  and  _480
REMARK  198  A    between atoms: _480  and  _481
REMARK  199  A    between atoms: _484  and  _486
REMARK  200  A    between atoms: _486  and  _487
REMARK  201  A    between atoms: _486  and  _489
REMARK  202  A    between atoms: _489  and  _490
REMARK  203  A    between atoms: _493  and  _495
REMARK  204  A    between atoms: _495  and  _496
REMARK  205  A    between atoms: _495  and  _498
REMARK  206  A    between atoms: _498  and  _499
REMARK  207  A    between atoms: _499  and  _500
REMARK  208  A    between atoms: _505  and  _507
REMARK  209  A    between atoms: _507  and  _508
REMARK  210  A    between atoms: _507  and  _510
REMARK  211  A    between atoms: _513  and  _515
REMARK  212  A    between atoms: _515  and  _516
REMARK  213  A    between atoms: _515  and  _518
REMARK  214  A    between atoms: _518  and  _519
REMARK  215  A    between atoms: _522  and  _524
REMARK  216  A    between atoms: _524  and  _525
REMARK  217  A    between atoms: _524  and  _527
REMARK  218  A    between atoms: _527  and  _528
REMARK  219  A    between atoms: _528  and  _529
REMARK  220  A    between atoms: _532  and  _534
REMARK  221  A    between atoms: _534  and  _535
REMARK  222  A    between atoms: _534  and  _537
REMARK  223  A    between atoms: _537  and  _538
REMARK  224  A    between atoms: _541  and  _543
REMARK  225  A    between atoms: _543  and  _544
REMARK  226  A    between atoms: _543  and  _546
REMARK  227  A    between atoms: _546  and  _547
REMARK  228  A    between atoms: _550  and  _552
REMARK  229  A    between atoms: _552  and  _553
REMARK  230  A    between atoms: _552  and  _555
REMARK  231  A    between atoms: _555  and  _556
REMARK  232  A    between atoms: _561  and  _563
REMARK  233  A    between atoms: _563  and  _564
REMARK  234  A    between atoms: _567  and  _569
REMARK  235  A    between atoms: _569  and  _570
REMARK  236  A    between atoms: _569  and  _572
REMARK  237  A    between atoms: _572  and  _573
REMARK  238  A    between atoms: _576  and  _578
REMARK  239  A    between atoms: _578  and  _579
REMARK  240  A    between atoms: _578  and  _581
REMARK  241  A    between atoms: _584  and  _586
REMARK  242  A    between atoms: _586  and  _587
REMARK  243  A    between atoms: _586  and  _589
REMARK  244  A    between atoms: _589  and  _590
REMARK  245  A    between atoms: _590  and  _591
REMARK  246  A    between atoms: _591  and  _592
REMARK  247  A    between atoms: _601  and  _603
REMARK  248  A    between atoms: _603  and  _604
REMARK  249  A    between atoms: _603  and  _606
REMARK  250  A    between atoms: _606  and  _607
REMARK  251  A    between atoms: _610  and  _612
REMARK  252  A    between atoms: _612  and  _613
REMARK  253  A    between atoms: _612  and  _615
REMARK  254  A    between atoms: _615  and  _616
REMARK  255  A    between atoms: _619  and  _621
REMARK  256  A    between atoms: _621  and  _622
REMARK  257  A    between atoms: _621  and  _624
REMARK  258  A    between atoms: _624  and  _625
REMARK  259  A    between atoms: _625  and  _626
REMARK  260  A    between atoms: _631  and  _633
REMARK  261  A    between atoms: _633  and  _634
REMARK  262  A    between atoms: _633  and  _636
REMARK  263  A    between atoms: _639  and  _641
REMARK  264  A    between atoms: _641  and  _642
REMARK  265  A    between atoms: _641  and  _644
REMARK  266  A    between atoms: _644  and  _645
REMARK                            x       y       z     vdW  Elec       q    Type
REMARK                         _______ _______ _______ _____ _____    ______ ____
ROOT
ATOM      1  O   HOH     1       0.288   1.633   6.394  0.00  0.00    +0.000 OA
ENDROOT
TORSDOF 0
REMARK  Name = ../refined-set-2016/3v2q/3v2q_pocket.pdb
REMARK  266 active torsions:
REMARK  status: ('A' for Active; 'I' for Inactive)
REMARK    1  A    between atoms: _1  and  _3
REMARK    2  A    between atoms: _3  and  _4
REMARK    3  A    between atoms: _3  and  _6
REMARK    4  A    between atoms: _6  and  _7
REMARK    5  A    between atoms: _7  and  _8
REMARK    6  A    between atoms: _11  and  _13
REMARK    7  A    between atoms: _13  and  _14
REMARK    8  A    between atoms: _13  and  _16
REMARK    9  A    between atoms: _16  and  _17
REMARK   10  A    between atoms: _20  and  _22
REMARK   11  A    between atoms: _22  and  _23
REMARK   12  A    between atoms: _22  and  _25
REMARK   13  A    between atoms: _25  and  _26
REMARK   14  A    between atoms: _29  and  _31
REMARK   15  A    between atoms: _31  and  _32
REMARK   16  A    between atoms: _31  and  _34
REMARK   17  A    between atoms: _34  and  _35
REMARK   18  A    between atoms: _40  and  _42
REMARK   19  A    between atoms: _42  and  _43
REMARK   20  A    between atoms: _46  and  _48
REMARK   21  A    between atoms: _48  and  _49
REMARK   22  A    between atoms: _48  and  _51
REMARK   23  A    between atoms: _51  and  _52
REMARK   24  A    between atoms: _55  and  _57
REMARK   25  A    between atoms: _57  and  _58
REMARK   26  A    between atoms: _57  and  _60
REMARK   27  A    between atoms: _63  and  _65
REMARK   28  A    between atoms: _65  and  _66
REMARK   29  A    between atoms: _65  and  _68
REMARK   30  A    between atoms: _68  and  _69
REMARK   31  A    between atoms: _69  and  _70
REMARK   32  A    between atoms: _70  and  _71
REMARK   33  A    between atoms: _80  and  _82
REMARK   34  A    between atoms: _82  and  _83
REMARK   35  A    between atoms: _82  and  _85
REMARK   36  A    between atoms: _85  and  _86
REMARK   37  A    between atoms: _89  and  _91
REMARK   38  A    between atoms: _91  and  _92
REMARK   39  A    between atoms: _91  and  _94
REMARK   40  A    between atoms: _94  and  _95
REMARK   41  A    between atoms: _98  and  _100
REMARK   42  A    between atoms: _100  and  _101
REMARK   43  A    between atoms: _100  and  _103
REMARK   44  A    between atoms: _103  and  _104
REMARK   45  A    between atoms: _104  and  _105
REMARK   46  A    between atoms: _110  and  _112
REMARK   47  A    between atoms: _112  and  _113
REMARK   48  A    between atoms: _112  and  _115
REMARK   49  A    between atoms: _118  and  _120
REMARK   50  A    between atoms: _120  and  _121
REMARK   51  A    between atoms: _120  and  _123
REMARK   52  A    between atoms: _123  and  _124
REMARK   53  A    between atoms: _127  and  _129
REMARK   54  A    between atoms: _129  and  _130
REMARK   55  A    between atoms: _129  and  _132
REMARK   56  A    between atoms: _132  and  _133
REMARK   57  A    between atoms: _133  and  _134
REMARK   58  A    between atoms: _137  and  _139
REMARK   59  A    between atoms: _139  and  _140
REMARK   60  A    between atoms: _139  and  _142
REMARK   61  A    between atoms: _142  and  _143
REMARK   62  A    between atoms: _146  and  _148
REMARK   63  A    between atoms: _148  and  _149
REMARK   64  A    between atoms: _148  and  _151
REMARK   65  A    between atoms: _151  and  _152
REMARK   66  A    between atoms: _155  and  _157
REMARK   67  A    between atoms: _157  and  _158
REMARK   68  A    between atoms: _157  and  _160
REMARK   69  A    between atoms: _160  and  _161
REMARK   70  A    between atoms: _166  and  _168
REMARK   71  A    between atoms: _168  and  _169
REMARK   72  A    between atoms: _172  and  _174
REMARK   73  A    between atoms: _174  and  _175
REMARK   74  A    between atoms: _174  and  _177
REMARK   75  A    between atoms: _177  and  _178
REMARK   76  A    between atoms: _181  and  _183
REMARK   77  A    between atoms: _183  and  _184
REMARK   78  A    between atoms: _183  and  _186
REMARK   79  A    between atoms: _189  and  _191
REMARK   80  A    between atoms: _191  and  _192
REMARK   81  A    between atoms: _191  and  _194
REMARK   82  A    between atoms: _194  and  _195
REMARK   83  A    between atoms: _195  and  _196
REMARK   84  A    between atoms: _196  and  _197
REMARK   85  A    between atoms: _206  and  _208
REMARK   86  A    between atoms: _208  and  _209
REMARK   87  A    between atoms: _208  and  _211
REMARK   88  A    between atoms: _211  and  _212
REMARK   89  A    between atoms: _215  and  _217
REMARK   90  A    between atoms: _217  and  _218
REMARK   91  A    between atoms: _217  and  _220
REMARK   92  A    between atoms: _220  and  _221
REMARK   93  A    between atoms: _224  and  _226
REMARK   94  A    between atoms: _226  and  _227
REMARK   95  A    between atoms: _226  and  _229
REMARK   96  A    between atoms: _229  and  _230
REMARK   97  A    between atoms: _230  and  _231
REMARK   98  A    between atoms: _236  and  _238
REMARK   99  A    between atoms: _238  and  _239
REMARK  100  A    between atoms: _238  and  _241
REMARK  101  A    between atoms: _244  and  _246
REMARK  102  A    between atoms: _246  and  _247
REMARK  103  A    between atoms: _246  and  _249
REMARK  104  A    between atoms: _249  and  _250
REMARK  105  A    between atoms: _253  and  _255
REMARK  106  A    between atoms: _255  and  _256
REMARK  107  A    between atoms: _255  and  _258
REMARK  108  A    between atoms: _258  and  _259
REMARK  109  A    between atoms: _259  and  _260
REMARK  110  A    between atoms: _263  and  _265
REMARK  111  A    between atoms: _265  and  _266
REMARK  112  A    between atoms: _265  and  _268
REMARK  113  A    between atoms: _268  and  _269
REMARK  114  A    between atoms: _272  and  _274
REMARK  115  A    between atoms: _274  and  _275
REMARK  116  A    between atoms: _274  and  _277
REMARK  117  A    between atoms: _277  and  _278
REMARK  118  A    between atoms: _281  and  _283
REMARK  119  A    between atoms: _283  and  _284
REMARK  120  A    between atoms: _283  and  _286
REMARK  121  A    between atoms: _286  and  _287
REMARK  122  A    between atoms: _292  and  _294
REMARK  123  A    between atoms: _294  and  _295
REMARK  124  A    between atoms: _298  and  _300
REMARK  125  A    between atoms: _300  and  _301
REMARK  126  A    between atoms: _300  and  _303
REMARK  127  A    between atoms: _303  and  _304
REMARK  128  A    between atoms: _307  and  _309
REMARK  129  A    between atoms: _309  and  _310
REMARK  130  A    between atoms: _309  and  _312
REMARK  131  A    between atoms: _315  and  _317
REMARK  132  A    between atoms: _317  and  _318
REMARK  133  A    between atoms: _317  and  _320
REMARK  134  A    between atoms: _320  and  _321
REMARK  135  A    between atoms: _321  and  _322
REMARK  136  A    between atoms: _322  and  _323
REMARK  137  A    between atoms: _332  and  _334
REMARK  138  A    between atoms: _334  and  _335
REMARK  139  A    between atoms: _334  and  _337
REMARK  140  A    between atoms: _337  and  _338
REMARK  141  A    between atoms: _341  and  _343
REMARK  142  A    between atoms: _343  and  _344
REMARK  143  A    between atoms: _343  and  _346
REMARK  144  A    between atoms: _346  and  _347
REMARK  145  A    between atoms: _350  and  _352
REMARK  146  A    between atoms: _352  and  _353
REMARK  147  A    between atoms: _352  and  _355
REMARK  148  A    between atoms: _355  and  _356
REMARK  149  A    between atoms: _356  and  _357
REMARK  150  A    between atoms: _357  and  _358
REMARK  151  A    between atoms: _367  and  _369
REMARK  152  A    between atoms: _369  and  _370
REMARK  153  A    between atoms: _369  and  _372
REMARK  154  A    between atoms: _372  and  _373
REMARK  155  A    between atoms: _373  and  _374
REMARK  156  A    between atoms: _379  and  _381
REMARK  157  A    between atoms: _381  and  _382
REMARK  158  A    between atoms: _381  and  _384
REMARK  159  A    between atoms: _387  and  _389
REMARK  160  A    between atoms: _389  and  _390
REMARK  161  A    between atoms: _389  and  _392
REMARK  162  A    between atoms: _392  and  _393
REMARK  163  A    between atoms: _396  and  _398
REMARK  164  A    between atoms: _398  and  _399
REMARK  165  A    between atoms: _398  and  _401
REMARK  166  A    between atoms: _401  and  _402
REMARK  167  A    between atoms: _402  and  _403
REMARK  168  A    between atoms: _406  and  _408
REMARK  169  A    between atoms: _408  and  _409
REMARK  170  A    between atoms: _408  and  _411
REMARK  171  A    between atoms: _411  and  _412
REMARK  172  A    between atoms: _415  and  _417
REMARK  173  A    between atoms: _417  and  _418
REMARK  174  A    between atoms: _417  and  _420
REMARK  175  A    between atoms: _420  and  _421
REMARK  176  A    between atoms: _424  and  _426
REMARK  177  A    between atoms: _426  and  _427
REMARK  178  A    between atoms: _426  and  _429
REMARK  179  A    between atoms: _429  and  _430
REMARK  180  A    between atoms: _435  and  _437
REMARK  181  A    between atoms: _437  and  _438
REMARK  182  A    between atoms: _441  and  _443
REMARK  183  A    between atoms: _443  and  _444
REMARK  184  A    between atoms: _443  and  _446
REMARK  185  A    between atoms: _446  and  _447
REMARK  186  A    between atoms: _450  and  _452
REMARK  187  A    between atoms: _452  and  _453
REMARK  188  A    between atoms: _452  and  _455
REMARK  189  A    between atoms: _458  and  _460
REMARK  190  A    between atoms: _460  and  _461
REMARK  191  A    between atoms: _460  and  _463
REMARK  192  A    between atoms: _463  and  _464
REMARK  193  A    between atoms: _464  and  _465
REMARK  194  A    between atoms: _465  and  _466
REMARK  195  A    between atoms: _475  and  _477
REMARK  196  A    between atoms: _477  and  _478
REMARK  197  A    between atoms: _477  and  _480
REMARK  198  A    between atoms: _480  and  _481
REMARK  199  A    between atoms: _484  and  _486
REMARK  200  A    between atoms: _486  and  _487
REMARK  201  A    between atoms: _486  and  _489
REMARK  202  A    between atoms: _489  and  _490
REMARK  203  A    between atoms: _493  and  _495
REMARK  204  A    between atoms: _495  and  _496
REMARK  205  A    between atoms: _495  and  _498
REMARK  206  A    between atoms: _498  and  _499
REMARK  207  A    between atoms: _499  and  _500
REMARK  208  A    between atoms: _505  and  _507
REMARK  209  A    between atoms: _507  and  _508
REMARK  210  A    between atoms: _507  and  _510
REMARK  211  A    between atoms: _513  and  _515
REMARK  212  A    between atoms: _515  and  _516
REMARK  213  A    between atoms: _515  and  _518
REMARK  214  A    between atoms: _518  and  _519
REMARK  215  A    between atoms: _522  and  _524
REMARK  216  A    between atoms: _524  and  _525
REMARK  217  A    between atoms: _524  and  _527
REMARK  218  A    between atoms: _527  and  _528
REMARK  219  A    between atoms: _528  and  _529
REMARK  220  A    between atoms: _532  and  _534
REMARK  221  A    between atoms: _534  and  _535
REMARK  222  A    between atoms: _534  and  _537
REMARK  223  A    between atoms: _537  and  _538
REMARK  224  A    between atoms: _541  and  _543
REMARK  225  A    between atoms: _543  and  _544
REMARK  226  A    between atoms: _543  and  _546
REMARK  227  A    between atoms: _546  and  _547
REMARK  228  A    between atoms: _550  and  _552
REMARK  229  A    between atoms: _552  and  _553
REMARK  230  A    between atoms: _552  and  _555
REMARK  231  A    between atoms: _555  and  _556
REMARK  232  A    between atoms: _561  and  _563
REMARK  233  A    between atoms: _563  and  _564
REMARK  234  A    between atoms: _567  and  _569
REMARK  235  A    between atoms: _569  and  _570
REMARK  236  A    between atoms: _569  and  _572
REMARK  237  A    between atoms: _572  and  _573
REMARK  238  A    between atoms: _576  and  _578
REMARK  239  A    between atoms: _578  and  _579
REMARK  240  A    between atoms: _578  and  _581
REMARK  241  A    between atoms: _584  and  _586
REMARK  242  A    between atoms: _586  and  _587
REMARK  243  A    between atoms: _586  and  _589
REMARK  244  A    between atoms: _589  and  _590
REMARK  245  A    between atoms: _590  and  _591
REMARK  246  A    between atoms: _591  and  _592
REMARK  247  A    between atoms: _601  and  _603
REMARK  248  A    between atoms: _603  and  _604
REMARK  249  A    between atoms: _603  and  _606
REMARK  250  A    between atoms: _606  and  _607
REMARK  251  A    between atoms: _610  and  _612
REMARK  252  A    between atoms: _612  and  _613
REMARK  253  A    between atoms: _612  and  _615
REMARK  254  A    between atoms: _615  and  _616
REMARK  255  A    between atoms: _619  and  _621
REMARK  256  A    between atoms: _621  and  _622
REMARK  257  A    between atoms: _621  and  _624
REMARK  258  A    between atoms: _624  and  _625
REMARK  259  A    between atoms: _625  and  _626
REMARK  260  A    between atoms: _631  and  _633
REMARK  261  A    between atoms: _633  and  _634
REMARK  262  A    between atoms: _633  and  _636
REMARK  263  A    between atoms: _639  and  _641
REMARK  264  A    between atoms: _641  and  _642
REMARK  265  A    between atoms: _641  and  _644
REMARK  266  A    between atoms: _644  and  _645
REMARK                            x       y       z     vdW  Elec       q    Type
REMARK                         _______ _______ _______ _____ _____    ______ ____
ROOT
ATOM      1  O   HOH     1      17.916   1.107  -7.821  0.00  0.00    +0.000 OA
ENDROOT
TORSDOF 0
REMARK  Name = ../refined-set-2016/3v2q/3v2q_pocket.pdb
REMARK  266 active torsions:
REMARK  status: ('A' for Active; 'I' for Inactive)
REMARK    1  A    between atoms: _1  and  _3
REMARK    2  A    between atoms: _3  and  _4
REMARK    3  A    between atoms: _3  and  _6
REMARK    4  A    between atoms: _6  and  _7
REMARK    5  A    between atoms: _7  and  _8
REMARK    6  A    between atoms: _11  and  _13
REMARK    7  A    between atoms: _13  and  _14
REMARK    8  A    between atoms: _13  and  _16
REMARK    9  A    between atoms: _16  and  _17
REMARK   10  A    between atoms: _20  and  _22
REMARK   11  A    between atoms: _22  and  _23
REMARK   12  A    between atoms: _22  and  _25
REMARK   13  A    between atoms: _25  and  _26
REMARK   14  A    between atoms: _29  and  _31
REMARK   15  A    between atoms: _31  and  _32
REMARK   16  A    between atoms: _31  and  _34
REMARK   17  A    between atoms: _34  and  _35
REMARK   18  A    between atoms: _40  and  _42
REMARK   19  A    between atoms: _42  and  _43
REMARK   20  A    between atoms: _46  and  _48
REMARK   21  A    between atoms: _48  and  _49
REMARK   22  A    between atoms: _48  and  _51
REMARK   23  A    between atoms: _51  and  _52
REMARK   24  A    between atoms: _55  and  _57
REMARK   25  A    between atoms: _57  and  _58
REMARK   26  A    between atoms: _57  and  _60
REMARK   27  A    between atoms: _63  and  _65
REMARK   28  A    between atoms: _65  and  _66
REMARK   29  A    between atoms: _65  and  _68
REMARK   30  A    between atoms: _68  and  _69
REMARK   31  A    between atoms: _69  and  _70
REMARK   32  A    between atoms: _70  and  _71
REMARK   33  A    between atoms: _80  and  _82
REMARK   34  A    between atoms: _82  and  _83
REMARK   35  A    between atoms: _82  and  _85
REMARK   36  A    between atoms: _85  and  _86
REMARK   37  A    between atoms: _89  and  _91
REMARK   38  A    between atoms: _91  and  _92
REMARK   39  A    between atoms: _91  and  _94
REMARK   40  A    between atoms: _94  and  _95
REMARK   41  A    between atoms: _98  and  _100
REMARK   42  A    between atoms: _100  and  _101
REMARK   43  A    between atoms: _100  and  _103
REMARK   44  A    between atoms: _103  and  _104
REMARK   45  A    between atoms: _104  and  _105
REMARK   46  A    between atoms: _110  and  _112
REMARK   47  A    between atoms: _112  and  _113
REMARK   48  A    between atoms: _112  and  _115
REMARK   49  A    between atoms: _118  and  _120
REMARK   50  A    between atoms: _120  and  _121
REMARK   51  A    between atoms: _120  and  _123
REMARK   52  A    between atoms: _123  and  _124
REMARK   53  A    between atoms: _127  and  _129
REMARK   54  A    between atoms: _129  and  _130
REMARK   55  A    between atoms: _129  and  _132
REMARK   56  A    between atoms: _132  and  _133
REMARK   57  A    between atoms: _133  and  _134
REMARK   58  A    between atoms: _137  and  _139
REMARK   59  A    between atoms: _139  and  _140
REMARK   60  A    between atoms: _139  and  _142
REMARK   61  A    between atoms: _142  and  _143
REMARK   62  A    between atoms: _146  and  _148
REMARK   63  A    between atoms: _148  and  _149
REMARK   64  A    between atoms: _148  and  _151
REMARK   65  A    between atoms: _151  and  _152
REMARK   66  A    between atoms: _155  and  _157
REMARK   67  A    between atoms: _157  and  _158
REMARK   68  A    between atoms: _157  and  _160
REMARK   69  A    between atoms: _160  and  _161
REMARK   70  A    between atoms: _166  and  _168
REMARK   71  A    between atoms: _168  and  _169
REMARK   72  A    between atoms: _172  and  _174
REMARK   73  A    between atoms: _174  and  _175
REMARK   74  A    between atoms: _174  and  _177
REMARK   75  A    between atoms: _177  and  _178
REMARK   76  A    between atoms: _181  and  _183
REMARK   77  A    between atoms: _183  and  _184
REMARK   78  A    between atoms: _183  and  _186
REMARK   79  A    between atoms: _189  and  _191
REMARK   80  A    between atoms: _191  and  _192
REMARK   81  A    between atoms: _191  and  _194
REMARK   82  A    between atoms: _194  and  _195
REMARK   83  A    between atoms: _195  and  _196
REMARK   84  A    between atoms: _196  and  _197
REMARK   85  A    between atoms: _206  and  _208
REMARK   86  A    between atoms: _208  and  _209
REMARK   87  A    between atoms: _208  and  _211
REMARK   88  A    between atoms: _211  and  _212
REMARK   89  A    between atoms: _215  and  _217
REMARK   90  A    between atoms: _217  and  _218
REMARK   91  A    between atoms: _217  and  _220
REMARK   92  A    between atoms: _220  and  _221
REMARK   93  A    between atoms: _224  and  _226
REMARK   94  A    between atoms: _226  and  _227
REMARK   95  A    between atoms: _226  and  _229
REMARK   96  A    between atoms: _229  and  _230
REMARK   97  A    between atoms: _230  and  _231
REMARK   98  A    between atoms: _236  and  _238
REMARK   99  A    between atoms: _238  and  _239
REMARK  100  A    between atoms: _238  and  _241
REMARK  101  A    between atoms: _244  and  _246
REMARK  102  A    between atoms: _246  and  _247
REMARK  103  A    between atoms: _246  and  _249
REMARK  104  A    between atoms: _249  and  _250
REMARK  105  A    between atoms: _253  and  _255
REMARK  106  A    between atoms: _255  and  _256
REMARK  107  A    between atoms: _255  and  _258
REMARK  108  A    between atoms: _258  and  _259
REMARK  109  A    between atoms: _259  and  _260
REMARK  110  A    between atoms: _263  and  _265
REMARK  111  A    between atoms: _265  and  _266
REMARK  112  A    between atoms: _265  and  _268
REMARK  113  A    between atoms: _268  and  _269
REMARK  114  A    between atoms: _272  and  _274
REMARK  115  A    between atoms: _274  and  _275
REMARK  116  A    between atoms: _274  and  _277
REMARK  117  A    between atoms: _277  and  _278
REMARK  118  A    between atoms: _281  and  _283
REMARK  119  A    between atoms: _283  and  _284
REMARK  120  A    between atoms: _283  and  _286
REMARK  121  A    between atoms: _286  and  _287
REMARK  122  A    between atoms: _292  and  _294
REMARK  123  A    between atoms: _294  and  _295
REMARK  124  A    between atoms: _298  and  _300
REMARK  125  A    between atoms: _300  and  _301
REMARK  126  A    between atoms: _300  and  _303
REMARK  127  A    between atoms: _303  and  _304
REMARK  128  A    between atoms: _307  and  _309
REMARK  129  A    between atoms: _309  and  _310
REMARK  130  A    between atoms: _309  and  _312
REMARK  131  A    between atoms: _315  and  _317
REMARK  132  A    between atoms: _317  and  _318
REMARK  133  A    between atoms: _317  and  _320
REMARK  134  A    between atoms: _320  and  _321
REMARK  135  A    between atoms: _321  and  _322
REMARK  136  A    between atoms: _322  and  _323
REMARK  137  A    between atoms: _332  and  _334
REMARK  138  A    between atoms: _334  and  _335
REMARK  139  A    between atoms: _334  and  _337
REMARK  140  A    between atoms: _337  and  _338
REMARK  141  A    between atoms: _341  and  _343
REMARK  142  A    between atoms: _343  and  _344
REMARK  143  A    between atoms: _343  and  _346
REMARK  144  A    between atoms: _346  and  _347
REMARK  145  A    between atoms: _350  and  _352
REMARK  146  A    between atoms: _352  and  _353
REMARK  147  A    between atoms: _352  and  _355
REMARK  148  A    between atoms: _355  and  _356
REMARK  149  A    between atoms: _356  and  _357
REMARK  150  A    between atoms: _357  and  _358
REMARK  151  A    between atoms: _367  and  _369
REMARK  152  A    between atoms: _369  and  _370
REMARK  153  A    between atoms: _369  and  _372
REMARK  154  A    between atoms: _372  and  _373
REMARK  155  A    between atoms: _373  and  _374
REMARK  156  A    between atoms: _379  and  _381
REMARK  157  A    between atoms: _381  and  _382
REMARK  158  A    between atoms: _381  and  _384
REMARK  159  A    between atoms: _387  and  _389
REMARK  160  A    between atoms: _389  and  _390
REMARK  161  A    between atoms: _389  and  _392
REMARK  162  A    between atoms: _392  and  _393
REMARK  163  A    between atoms: _396  and  _398
REMARK  164  A    between atoms: _398  and  _399
REMARK  165  A    between atoms: _398  and  _401
REMARK  166  A    between atoms: _401  and  _402
REMARK  167  A    between atoms: _402  and  _403
REMARK  168  A    between atoms: _406  and  _408
REMARK  169  A    between atoms: _408  and  _409
REMARK  170  A    between atoms: _408  and  _411
REMARK  171  A    between atoms: _411  and  _412
REMARK  172  A    between atoms: _415  and  _417
REMARK  173  A    between atoms: _417  and  _418
REMARK  174  A    between atoms: _417  and  _420
REMARK  175  A    between atoms: _420  and  _421
REMARK  176  A    between atoms: _424  and  _426
REMARK  177  A    between atoms: _426  and  _427
REMARK  178  A    between atoms: _426  and  _429
REMARK  179  A    between atoms: _429  and  _430
REMARK  180  A    between atoms: _435  and  _437
REMARK  181  A    between atoms: _437  and  _438
REMARK  182  A    between atoms: _441  and  _443
REMARK  183  A    between atoms: _443  and  _444
REMARK  184  A    between atoms: _443  and  _446
REMARK  185  A    between atoms: _446  and  _447
REMARK  186  A    between atoms: _450  and  _452
REMARK  187  A    between atoms: _452  and  _453
REMARK  188  A    between atoms: _452  and  _455
REMARK  189  A    between atoms: _458  and  _460
REMARK  190  A    between atoms: _460  and  _461
REMARK  191  A    between atoms: _460  and  _463
REMARK  192  A    between atoms: _463  and  _464
REMARK  193  A    between atoms: _464  and  _465
REMARK  194  A    between atoms: _465  and  _466
REMARK  195  A    between atoms: _475  and  _477
REMARK  196  A    between atoms: _477  and  _478
REMARK  197  A    between atoms: _477  and  _480
REMARK  198  A    between atoms: _480  and  _481
REMARK  199  A    between atoms: _484  and  _486
REMARK  200  A    between atoms: _486  and  _487
REMARK  201  A    between atoms: _486  and  _489
REMARK  202  A    between atoms: _489  and  _490
REMARK  203  A    between atoms: _493  and  _495
REMARK  204  A    between atoms: _495  and  _496
REMARK  205  A    between atoms: _495  and  _498
REMARK  206  A    between atoms: _498  and  _499
REMARK  207  A    between atoms: _499  and  _500
REMARK  208  A    between atoms: _505  and  _507
REMARK  209  A    between atoms: _507  and  _508
REMARK  210  A    between atoms: _507  and  _510
REMARK  211  A    between atoms: _513  and  _515
REMARK  212  A    between atoms: _515  and  _516
REMARK  213  A    between atoms: _515  and  _518
REMARK  214  A    between atoms: _518  and  _519
REMARK  215  A    between atoms: _522  and  _524
REMARK  216  A    between atoms: _524  and  _525
REMARK  217  A    between atoms: _524  and  _527
REMARK  218  A    between atoms: _527  and  _528
REMARK  219  A    between atoms: _528  and  _529
REMARK  220  A    between atoms: _532  and  _534
REMARK  221  A    between atoms: _534  and  _535
REMARK  222  A    between atoms: _534  and  _537
REMARK  223  A    between atoms: _537  and  _538
REMARK  224  A    between atoms: _541  and  _543
REMARK  225  A    between atoms: _543  and  _544
REMARK  226  A    between atoms: _543  and  _546
REMARK  227  A    between atoms: _546  and  _547
REMARK  228  A    between atoms: _550  and  _552
REMARK  229  A    between atoms: _552  and  _553
REMARK  230  A    between atoms: _552  and  _555
REMARK  231  A    between atoms: _555  and  _556
REMARK  232  A    between atoms: _561  and  _563
REMARK  233  A    between atoms: _563  and  _564
REMARK  234  A    between atoms: _567  and  _569
REMARK  235  A    between atoms: _569  and  _570
REMARK  236  A    between atoms: _569  and  _572
REMARK  237  A    between atoms: _572  and  _573
REMARK  238  A    between atoms: _576  and  _578
REMARK  239  A    between atoms: _578  and  _579
REMARK  240  A    between atoms: _578  and  _581
REMARK  241  A    between atoms: _584  and  _586
REMARK  242  A    between atoms: _586  and  _587
REMARK  243  A    between atoms: _586  and  _589
REMARK  244  A    between atoms: _589  and  _590
REMARK  245  A    between atoms: _590  and  _591
REMARK  246  A    between atoms: _591  and  _592
REMARK  247  A    between atoms: _601  and  _603
REMARK  248  A    between atoms: _603  and  _604
REMARK  249  A    between atoms: _603  and  _606
REMARK  250  A    between atoms: _606  and  _607
REMARK  251  A    between atoms: _610  and  _612
REMARK  252  A    between atoms: _612  and  _613
REMARK  253  A    between atoms: _612  and  _615
REMARK  254  A    between atoms: _615  and  _616
REMARK  255  A    between atoms: _619  and  _621
REMARK  256  A    between atoms: _621  and  _622
REMARK  257  A    between atoms: _621  and  _624
REMARK  258  A    between atoms: _624  and  _625
REMARK  259  A    between atoms: _625  and  _626
REMARK  260  A    between atoms: _631  and  _633
REMARK  261  A    between atoms: _633  and  _634
REMARK  262  A    between atoms: _633  and  _636
REMARK  263  A    between atoms: _639  and  _641
REMARK  264  A    between atoms: _641  and  _642
REMARK  265  A    between atoms: _641  and  _644
REMARK  266  A    between atoms: _644  and  _645
REMARK                            x       y       z     vdW  Elec       q    Type
REMARK                         _______ _______ _______ _____ _____    ______ ____
ROOT
ATOM      1  O   HOH     1      10.102   2.210  -6.105  0.00  0.00    +0.000 OA
ENDROOT
TORSDOF 0
REMARK  Name = ../refined-set-2016/3v2q/3v2q_pocket.pdb
REMARK  266 active torsions:
REMARK  status: ('A' for Active; 'I' for Inactive)
REMARK    1  A    between atoms: _1  and  _3
REMARK    2  A    between atoms: _3  and  _4
REMARK    3  A    between atoms: _3  and  _6
REMARK    4  A    between atoms: _6  and  _7
REMARK    5  A    between atoms: _7  and  _8
REMARK    6  A    between atoms: _11  and  _13
REMARK    7  A    between atoms: _13  and  _14
REMARK    8  A    between atoms: _13  and  _16
REMARK    9  A    between atoms: _16  and  _17
REMARK   10  A    between atoms: _20  and  _22
REMARK   11  A    between atoms: _22  and  _23
REMARK   12  A    between atoms: _22  and  _25
REMARK   13  A    between atoms: _25  and  _26
REMARK   14  A    between atoms: _29  and  _31
REMARK   15  A    between atoms: _31  and  _32
REMARK   16  A    between atoms: _31  and  _34
REMARK   17  A    between atoms: _34  and  _35
REMARK   18  A    between atoms: _40  and  _42
REMARK   19  A    between atoms: _42  and  _43
REMARK   20  A    between atoms: _46  and  _48
REMARK   21  A    between atoms: _48  and  _49
REMARK   22  A    between atoms: _48  and  _51
REMARK   23  A    between atoms: _51  and  _52
REMARK   24  A    between atoms: _55  and  _57
REMARK   25  A    between atoms: _57  and  _58
REMARK   26  A    between atoms: _57  and  _60
REMARK   27  A    between atoms: _63  and  _65
REMARK   28  A    between atoms: _65  and  _66
REMARK   29  A    between atoms: _65  and  _68
REMARK   30  A    between atoms: _68  and  _69
REMARK   31  A    between atoms: _69  and  _70
REMARK   32  A    between atoms: _70  and  _71
REMARK   33  A    between atoms: _80  and  _82
REMARK   34  A    between atoms: _82  and  _83
REMARK   35  A    between atoms: _82  and  _85
REMARK   36  A    between atoms: _85  and  _86
REMARK   37  A    between atoms: _89  and  _91
REMARK   38  A    between atoms: _91  and  _92
REMARK   39  A    between atoms: _91  and  _94
REMARK   40  A    between atoms: _94  and  _95
REMARK   41  A    between atoms: _98  and  _100
REMARK   42  A    between atoms: _100  and  _101
REMARK   43  A    between atoms: _100  and  _103
REMARK   44  A    between atoms: _103  and  _104
REMARK   45  A    between atoms: _104  and  _105
REMARK   46  A    between atoms: _110  and  _112
REMARK   47  A    between atoms: _112  and  _113
REMARK   48  A    between atoms: _112  and  _115
REMARK   49  A    between atoms: _118  and  _120
REMARK   50  A    between atoms: _120  and  _121
REMARK   51  A    between atoms: _120  and  _123
REMARK   52  A    between atoms: _123  and  _124
REMARK   53  A    between atoms: _127  and  _129
REMARK   54  A    between atoms: _129  and  _130
REMARK   55  A    between atoms: _129  and  _132
REMARK   56  A    between atoms: _132  and  _133
REMARK   57  A    between atoms: _133  and  _134
REMARK   58  A    between atoms: _137  and  _139
REMARK   59  A    between atoms: _139  and  _140
REMARK   60  A    between atoms: _139  and  _142
REMARK   61  A    between atoms: _142  and  _143
REMARK   62  A    between atoms: _146  and  _148
REMARK   63  A    between atoms: _148  and  _149
REMARK   64  A    between atoms: _148  and  _151
REMARK   65  A    between atoms: _151  and  _152
REMARK   66  A    between atoms: _155  and  _157
REMARK   67  A    between atoms: _157  and  _158
REMARK   68  A    between atoms: _157  and  _160
REMARK   69  A    between atoms: _160  and  _161
REMARK   70  A    between atoms: _166  and  _168
REMARK   71  A    between atoms: _168  and  _169
REMARK   72  A    between atoms: _172  and  _174
REMARK   73  A    between atoms: _174  and  _175
REMARK   74  A    between atoms: _174  and  _177
REMARK   75  A    between atoms: _177  and  _178
REMARK   76  A    between atoms: _181  and  _183
REMARK   77  A    between atoms: _183  and  _184
REMARK   78  A    between atoms: _183  and  _186
REMARK   79  A    between atoms: _189  and  _191
REMARK   80  A    between atoms: _191  and  _192
REMARK   81  A    between atoms: _191  and  _194
REMARK   82  A    between atoms: _194  and  _195
REMARK   83  A    between atoms: _195  and  _196
REMARK   84  A    between atoms: _196  and  _197
REMARK   85  A    between atoms: _206  and  _208
REMARK   86  A    between atoms: _208  and  _209
REMARK   87  A    between atoms: _208  and  _211
REMARK   88  A    between atoms: _211  and  _212
REMARK   89  A    between atoms: _215  and  _217
REMARK   90  A    between atoms: _217  and  _218
REMARK   91  A    between atoms: _217  and  _220
REMARK   92  A    between atoms: _220  and  _221
REMARK   93  A    between atoms: _224  and  _226
REMARK   94  A    between atoms: _226  and  _227
REMARK   95  A    between atoms: _226  and  _229
REMARK   96  A    between atoms: _229  and  _230
REMARK   97  A    between atoms: _230  and  _231
REMARK   98  A    between atoms: _236  and  _238
REMARK   99  A    between atoms: _238  and  _239
REMARK  100  A    between atoms: _238  and  _241
REMARK  101  A    between atoms: _244  and  _246
REMARK  102  A    between atoms: _246  and  _247
REMARK  103  A    between atoms: _246  and  _249
REMARK  104  A    between atoms: _249  and  _250
REMARK  105  A    between atoms: _253  and  _255
REMARK  106  A    between atoms: _255  and  _256
REMARK  107  A    between atoms: _255  and  _258
REMARK  108  A    between atoms: _258  and  _259
REMARK  109  A    between atoms: _259  and  _260
REMARK  110  A    between atoms: _263  and  _265
REMARK  111  A    between atoms: _265  and  _266
REMARK  112  A    between atoms: _265  and  _268
REMARK  113  A    between atoms: _268  and  _269
REMARK  114  A    between atoms: _272  and  _274
REMARK  115  A    between atoms: _274  and  _275
REMARK  116  A    between atoms: _274  and  _277
REMARK  117  A    between atoms: _277  and  _278
REMARK  118  A    between atoms: _281  and  _283
REMARK  119  A    between atoms: _283  and  _284
REMARK  120  A    between atoms: _283  and  _286
REMARK  121  A    between atoms: _286  and  _287
REMARK  122  A    between atoms: _292  and  _294
REMARK  123  A    between atoms: _294  and  _295
REMARK  124  A    between atoms: _298  and  _300
REMARK  125  A    between atoms: _300  and  _301
REMARK  126  A    between atoms: _300  and  _303
REMARK  127  A    between atoms: _303  and  _304
REMARK  128  A    between atoms: _307  and  _309
REMARK  129  A    between atoms: _309  and  _310
REMARK  130  A    between atoms: _309  and  _312
REMARK  131  A    between atoms: _315  and  _317
REMARK  132  A    between atoms: _317  and  _318
REMARK  133  A    between atoms: _317  and  _320
REMARK  134  A    between atoms: _320  and  _321
REMARK  135  A    between atoms: _321  and  _322
REMARK  136  A    between atoms: _322  and  _323
REMARK  137  A    between atoms: _332  and  _334
REMARK  138  A    between atoms: _334  and  _335
REMARK  139  A    between atoms: _334  and  _337
REMARK  140  A    between atoms: _337  and  _338
REMARK  141  A    between atoms: _341  and  _343
REMARK  142  A    between atoms: _343  and  _344
REMARK  143  A    between atoms: _343  and  _346
REMARK  144  A    between atoms: _346  and  _347
REMARK  145  A    between atoms: _350  and  _352
REMARK  146  A    between atoms: _352  and  _353
REMARK  147  A    between atoms: _352  and  _355
REMARK  148  A    between atoms: _355  and  _356
REMARK  149  A    between atoms: _356  and  _357
REMARK  150  A    between atoms: _357  and  _358
REMARK  151  A    between atoms: _367  and  _369
REMARK  152  A    between atoms: _369  and  _370
REMARK  153  A    between atoms: _369  and  _372
REMARK  154  A    between atoms: _372  and  _373
REMARK  155  A    between atoms: _373  and  _374
REMARK  156  A    between atoms: _379  and  _381
REMARK  157  A    between atoms: _381  and  _382
REMARK  158  A    between atoms: _381  and  _384
REMARK  159  A    between atoms: _387  and  _389
REMARK  160  A    between atoms: _389  and  _390
REMARK  161  A    between atoms: _389  and  _392
REMARK  162  A    between atoms: _392  and  _393
REMARK  163  A    between atoms: _396  and  _398
REMARK  164  A    between atoms: _398  and  _399
REMARK  165  A    between atoms: _398  and  _401
REMARK  166  A    between atoms: _401  and  _402
REMARK  167  A    between atoms: _402  and  _403
REMARK  168  A    between atoms: _406  and  _408
REMARK  169  A    between atoms: _408  and  _409
REMARK  170  A    between atoms: _408  and  _411
REMARK  171  A    between atoms: _411  and  _412
REMARK  172  A    between atoms: _415  and  _417
REMARK  173  A    between atoms: _417  and  _418
REMARK  174  A    between atoms: _417  and  _420
REMARK  175  A    between atoms: _420  and  _421
REMARK  176  A    between atoms: _424  and  _426
REMARK  177  A    between atoms: _426  and  _427
REMARK  178  A    between atoms: _426  and  _429
REMARK  179  A    between atoms: _429  and  _430
REMARK  180  A    between atoms: _435  and  _437
REMARK  181  A    between atoms: _437  and  _438
REMARK  182  A    between atoms: _441  and  _443
REMARK  183  A    between atoms: _443  and  _444
REMARK  184  A    between atoms: _443  and  _446
REMARK  185  A    between atoms: _446  and  _447
REMARK  186  A    between atoms: _450  and  _452
REMARK  187  A    between atoms: _452  and  _453
REMARK  188  A    between atoms: _452  and  _455
REMARK  189  A    between atoms: _458  and  _460
REMARK  190  A    between atoms: _460  and  _461
REMARK  191  A    between atoms: _460  and  _463
REMARK  192  A    between atoms: _463  and  _464
REMARK  193  A    between atoms: _464  and  _465
REMARK  194  A    between atoms: _465  and  _466
REMARK  195  A    between atoms: _475  and  _477
REMARK  196  A    between atoms: _477  and  _478
REMARK  197  A    between atoms: _477  and  _480
REMARK  198  A    between atoms: _480  and  _481
REMARK  199  A    between atoms: _484  and  _486
REMARK  200  A    between atoms: _486  and  _487
REMARK  201  A    between atoms: _486  and  _489
REMARK  202  A    between atoms: _489  and  _490
REMARK  203  A    between atoms: _493  and  _495
REMARK  204  A    between atoms: _495  and  _496
REMARK  205  A    between atoms: _495  and  _498
REMARK  206  A    between atoms: _498  and  _499
REMARK  207  A    between atoms: _499  and  _500
REMARK  208  A    between atoms: _505  and  _507
REMARK  209  A    between atoms: _507  and  _508
REMARK  210  A    between atoms: _507  and  _510
REMARK  211  A    between atoms: _513  and  _515
REMARK  212  A    between atoms: _515  and  _516
REMARK  213  A    between atoms: _515  and  _518
REMARK  214  A    between atoms: _518  and  _519
REMARK  215  A    between atoms: _522  and  _524
REMARK  216  A    between atoms: _524  and  _525
REMARK  217  A    between atoms: _524  and  _527
REMARK  218  A    between atoms: _527  and  _528
REMARK  219  A    between atoms: _528  and  _529
REMARK  220  A    between atoms: _532  and  _534
REMARK  221  A    between atoms: _534  and  _535
REMARK  222  A    between atoms: _534  and  _537
REMARK  223  A    between atoms: _537  and  _538
REMARK  224  A    between atoms: _541  and  _543
REMARK  225  A    between atoms: _543  and  _544
REMARK  226  A    between atoms: _543  and  _546
REMARK  227  A    between atoms: _546  and  _547
REMARK  228  A    between atoms: _550  and  _552
REMARK  229  A    between atoms: _552  and  _553
REMARK  230  A    between atoms: _552  and  _555
REMARK  231  A    between atoms: _555  and  _556
REMARK  232  A    between atoms: _561  and  _563
REMARK  233  A    between atoms: _563  and  _564
REMARK  234  A    between atoms: _567  and  _569
REMARK  235  A    between atoms: _569  and  _570
REMARK  236  A    between atoms: _569  and  _572
REMARK  237  A    between atoms: _572  and  _573
REMARK  238  A    between atoms: _576  and  _578
REMARK  239  A    between atoms: _578  and  _579
REMARK  240  A    between atoms: _578  and  _581
REMARK  241  A    between atoms: _584  and  _586
REMARK  242  A    between atoms: _586  and  _587
REMARK  243  A    between atoms: _586  and  _589
REMARK  244  A    between atoms: _589  and  _590
REMARK  245  A    between atoms: _590  and  _591
REMARK  246  A    between atoms: _591  and  _592
REMARK  247  A    between atoms: _601  and  _603
REMARK  248  A    between atoms: _603  and  _604
REMARK  249  A    between atoms: _603  and  _606
REMARK  250  A    between atoms: _606  and  _607
REMARK  251  A    between atoms: _610  and  _612
REMARK  252  A    between atoms: _612  and  _613
REMARK  253  A    between atoms: _612  and  _615
REMARK  254  A    between atoms: _615  and  _616
REMARK  255  A    between atoms: _619  and  _621
REMARK  256  A    between atoms: _621  and  _622
REMARK  257  A    between atoms: _621  and  _624
REMARK  258  A    between atoms: _624  and  _625
REMARK  259  A    between atoms: _625  and  _626
REMARK  260  A    between atoms: _631  and  _633
REMARK  261  A    between atoms: _633  and  _634
REMARK  262  A    between atoms: _633  and  _636
REMARK  263  A    between atoms: _639  and  _641
REMARK  264  A    between atoms: _641  and  _642
REMARK  265  A    between atoms: _641  and  _644
REMARK  266  A    between atoms: _644  and  _645
REMARK                            x       y       z     vdW  Elec       q    Type
REMARK                         _______ _______ _______ _____ _____    ______ ____
ROOT
ATOM      1  O   HOH     1      15.636   1.221  -5.872  0.00  0.00    +0.000 OA
ENDROOT
TORSDOF 0
