REMARK  Name = ../refined-set-2016/3gta/3gta_pocket.pdb
REMARK  123 active torsions:
REMARK  status: ('A' for Active; 'I' for Inactive)
REMARK    1  A    between atoms: _1  and  _3
REMARK    2  A    between atoms: _3  and  _4
REMARK    3  A    between atoms: _3  and  _6
REMARK    4  A    between atoms: _9  and  _11
REMARK    5  A    between atoms: _11  and  _12
REMARK    6  A    between atoms: _11  and  _14
REMARK    7  A    between atoms: _14  and  _15
REMARK    8  A    between atoms: _18  and  _20
REMARK    9  A    between atoms: _20  and  _21
REMARK   10  A    between atoms: _20  and  _23
REMARK   11  A    between atoms: _23  and  _24
REMARK   12  A    between atoms: _30  and  _32
REMARK   13  A    between atoms: _32  and  _33
REMARK   14  A    between atoms: _32  and  _35
REMARK   15  A    between atoms: _35  and  _36
REMARK   16  A    between atoms: _42  and  _44
REMARK   17  A    between atoms: _44  and  _45
REMARK   18  A    between atoms: _44  and  _47
REMARK   19  A    between atoms: _47  and  _48
REMARK   20  A    between atoms: _51  and  _53
REMARK   21  A    between atoms: _53  and  _54
REMARK   22  A    between atoms: _53  and  _56
REMARK   23  A    between atoms: _56  and  _57
REMARK   24  A    between atoms: _62  and  _64
REMARK   25  A    between atoms: _64  and  _65
REMARK   26  A    between atoms: _64  and  _67
REMARK   27  A    between atoms: _67  and  _68
REMARK   28  A    between atoms: _68  and  _69
REMARK   29  A    between atoms: _74  and  _76
REMARK   30  A    between atoms: _76  and  _77
REMARK   31  A    between atoms: _76  and  _79
REMARK   32  A    between atoms: _79  and  _80
REMARK   33  A    between atoms: _83  and  _85
REMARK   34  A    between atoms: _85  and  _86
REMARK   35  A    between atoms: _85  and  _88
REMARK   36  A    between atoms: _88  and  _89
REMARK   37  A    between atoms: _89  and  _90
REMARK   38  A    between atoms: _90  and  _91
REMARK   39  A    between atoms: _91  and  _92
REMARK   40  A    between atoms: _96  and  _98
REMARK   41  A    between atoms: _98  and  _99
REMARK   42  A    between atoms: _98  and  _101
REMARK   43  A    between atoms: _104  and  _106
REMARK   44  A    between atoms: _106  and  _107
REMARK   45  A    between atoms: _106  and  _109
REMARK   46  A    between atoms: _109  and  _110
REMARK   47  A    between atoms: _110  and  _111
REMARK   48  A    between atoms: _111  and  _112
REMARK   49  A    between atoms: _121  and  _123
REMARK   50  A    between atoms: _123  and  _124
REMARK   51  A    between atoms: _123  and  _126
REMARK   52  A    between atoms: _128  and  _130
REMARK   53  A    between atoms: _130  and  _131
REMARK   54  A    between atoms: _130  and  _133
REMARK   55  A    between atoms: _133  and  _134
REMARK   56  A    between atoms: _139  and  _140
REMARK   57  A    between atoms: _142  and  _144
REMARK   58  A    between atoms: _144  and  _145
REMARK   59  A    between atoms: _147  and  _149
REMARK   60  A    between atoms: _149  and  _150
REMARK   61  A    between atoms: _152  and  _154
REMARK   62  A    between atoms: _154  and  _155
REMARK   63  A    between atoms: _154  and  _157
REMARK   64  A    between atoms: _157  and  _158
REMARK   65  A    between atoms: _161  and  _163
REMARK   66  A    between atoms: _163  and  _164
REMARK   67  A    between atoms: _163  and  _166
REMARK   68  A    between atoms: _166  and  _167
REMARK   69  A    between atoms: _167  and  _168
REMARK   70  A    between atoms: _173  and  _175
REMARK   71  A    between atoms: _175  and  _176
REMARK   72  A    between atoms: _175  and  _178
REMARK   73  A    between atoms: _178  and  _179
REMARK   74  A    between atoms: _181  and  _183
REMARK   75  A    between atoms: _183  and  _184
REMARK   76  A    between atoms: _183  and  _186
REMARK   77  A    between atoms: _186  and  _187
REMARK   78  A    between atoms: _197  and  _199
REMARK   79  A    between atoms: _199  and  _200
REMARK   80  A    between atoms: _199  and  _202
REMARK   81  A    between atoms: _202  and  _203
REMARK   82  A    between atoms: _203  and  _204
REMARK   83  A    between atoms: _204  and  _205
REMARK   84  A    between atoms: _205  and  _206
REMARK   85  A    between atoms: _210  and  _212
REMARK   86  A    between atoms: _212  and  _213
REMARK   87  A    between atoms: _212  and  _215
REMARK   88  A    between atoms: _215  and  _216
REMARK   89  A    between atoms: _216  and  _217
REMARK   90  A    between atoms: _217  and  _218
REMARK   91  A    between atoms: _227  and  _229
REMARK   92  A    between atoms: _229  and  _230
REMARK   93  A    between atoms: _229  and  _232
REMARK   94  A    between atoms: _232  and  _233
REMARK   95  A    between atoms: _236  and  _238
REMARK   96  A    between atoms: _238  and  _239
REMARK   97  A    between atoms: _238  and  _241
REMARK   98  A    between atoms: _241  and  _242
REMARK   99  A    between atoms: _246  and  _247
REMARK  100  A    between atoms: _252  and  _254
REMARK  101  A    between atoms: _254  and  _255
REMARK  102  A    between atoms: _254  and  _257
REMARK  103  A    between atoms: _257  and  _258
REMARK  104  A    between atoms: _258  and  _259
REMARK  105  A    between atoms: _262  and  _264
REMARK  106  A    between atoms: _264  and  _265
REMARK  107  A    between atoms: _264  and  _267
REMARK  108  A    between atoms: _267  and  _268
REMARK  109  A    between atoms: _273  and  _275
REMARK  110  A    between atoms: _275  and  _276
REMARK  111  A    between atoms: _275  and  _278
REMARK  112  A    between atoms: _278  and  _279
REMARK  113  A    between atoms: _279  and  _280
REMARK  114  A    between atoms: _280  and  _281
REMARK  115  A    between atoms: _281  and  _282
REMARK  116  A    between atoms: _286  and  _288
REMARK  117  A    between atoms: _288  and  _289
REMARK  118  A    between atoms: _288  and  _291
REMARK  119  A    between atoms: _291  and  _292
REMARK  120  A    between atoms: _302  and  _304
REMARK  121  A    between atoms: _304  and  _305
REMARK  122  A    between atoms: _304  and  _307
REMARK  123  A    between atoms: _307  and  _308
REMARK                            x       y       z     vdW  Elec       q    Type
REMARK                         _______ _______ _______ _____ _____    ______ ____
ROOT
ATOM      1  CA  VAL A   1      90.304  59.128  24.746  0.00  0.00    +0.133 C 
ENDROOT
BRANCH   1   2
ATOM      2  CB  VAL A   1      89.105  59.464  23.823  0.00  0.00    +0.023 C 
ATOM      3  CG2 VAL A   1      89.070  60.961  23.521  0.00  0.00    +0.002 C 
ATOM      4  CG1 VAL A   1      89.156  58.659  22.526  0.00  0.00    +0.002 C 
ENDBRANCH   1   2
BRANCH   1   5
ATOM      5  N   VAL A   1      90.451  57.689  24.964  0.00  0.00    -0.239 NA
ATOM      6  H   VAL A   1      89.878  57.235  25.703  0.00  0.00    +0.142 HD
ENDBRANCH   1   5
BRANCH   1   7
ATOM      7  C   VAL A   1      90.101  59.791  26.115  0.00  0.00    +0.224 C 
ATOM      8  O   VAL A   1      89.016  59.708  26.689  0.00  0.00    -0.287 OA
ENDBRANCH   1   7
TORSDOF 3
REMARK  Name = ../refined-set-2016/3gta/3gta_pocket.pdb
REMARK  123 active torsions:
REMARK  status: ('A' for Active; 'I' for Inactive)
REMARK    1  A    between atoms: _1  and  _3
REMARK    2  A    between atoms: _3  and  _4
REMARK    3  A    between atoms: _3  and  _6
REMARK    4  A    between atoms: _9  and  _11
REMARK    5  A    between atoms: _11  and  _12
REMARK    6  A    between atoms: _11  and  _14
REMARK    7  A    between atoms: _14  and  _15
REMARK    8  A    between atoms: _18  and  _20
REMARK    9  A    between atoms: _20  and  _21
REMARK   10  A    between atoms: _20  and  _23
REMARK   11  A    between atoms: _23  and  _24
REMARK   12  A    between atoms: _30  and  _32
REMARK   13  A    between atoms: _32  and  _33
REMARK   14  A    between atoms: _32  and  _35
REMARK   15  A    between atoms: _35  and  _36
REMARK   16  A    between atoms: _42  and  _44
REMARK   17  A    between atoms: _44  and  _45
REMARK   18  A    between atoms: _44  and  _47
REMARK   19  A    between atoms: _47  and  _48
REMARK   20  A    between atoms: _51  and  _53
REMARK   21  A    between atoms: _53  and  _54
REMARK   22  A    between atoms: _53  and  _56
REMARK   23  A    between atoms: _56  and  _57
REMARK   24  A    between atoms: _62  and  _64
REMARK   25  A    between atoms: _64  and  _65
REMARK   26  A    between atoms: _64  and  _67
REMARK   27  A    between atoms: _67  and  _68
REMARK   28  A    between atoms: _68  and  _69
REMARK   29  A    between atoms: _74  and  _76
REMARK   30  A    between atoms: _76  and  _77
REMARK   31  A    between atoms: _76  and  _79
REMARK   32  A    between atoms: _79  and  _80
REMARK   33  A    between atoms: _83  and  _85
REMARK   34  A    between atoms: _85  and  _86
REMARK   35  A    between atoms: _85  and  _88
REMARK   36  A    between atoms: _88  and  _89
REMARK   37  A    between atoms: _89  and  _90
REMARK   38  A    between atoms: _90  and  _91
REMARK   39  A    between atoms: _91  and  _92
REMARK   40  A    between atoms: _96  and  _98
REMARK   41  A    between atoms: _98  and  _99
REMARK   42  A    between atoms: _98  and  _101
REMARK   43  A    between atoms: _104  and  _106
REMARK   44  A    between atoms: _106  and  _107
REMARK   45  A    between atoms: _106  and  _109
REMARK   46  A    between atoms: _109  and  _110
REMARK   47  A    between atoms: _110  and  _111
REMARK   48  A    between atoms: _111  and  _112
REMARK   49  A    between atoms: _121  and  _123
REMARK   50  A    between atoms: _123  and  _124
REMARK   51  A    between atoms: _123  and  _126
REMARK   52  A    between atoms: _128  and  _130
REMARK   53  A    between atoms: _130  and  _131
REMARK   54  A    between atoms: _130  and  _133
REMARK   55  A    between atoms: _133  and  _134
REMARK   56  A    between atoms: _139  and  _140
REMARK   57  A    between atoms: _142  and  _144
REMARK   58  A    between atoms: _144  and  _145
REMARK   59  A    between atoms: _147  and  _149
REMARK   60  A    between atoms: _149  and  _150
REMARK   61  A    between atoms: _152  and  _154
REMARK   62  A    between atoms: _154  and  _155
REMARK   63  A    between atoms: _154  and  _157
REMARK   64  A    between atoms: _157  and  _158
REMARK   65  A    between atoms: _161  and  _163
REMARK   66  A    between atoms: _163  and  _164
REMARK   67  A    between atoms: _163  and  _166
REMARK   68  A    between atoms: _166  and  _167
REMARK   69  A    between atoms: _167  and  _168
REMARK   70  A    between atoms: _173  and  _175
REMARK   71  A    between atoms: _175  and  _176
REMARK   72  A    between atoms: _175  and  _178
REMARK   73  A    between atoms: _178  and  _179
REMARK   74  A    between atoms: _181  and  _183
REMARK   75  A    between atoms: _183  and  _184
REMARK   76  A    between atoms: _183  and  _186
REMARK   77  A    between atoms: _186  and  _187
REMARK   78  A    between atoms: _197  and  _199
REMARK   79  A    between atoms: _199  and  _200
REMARK   80  A    between atoms: _199  and  _202
REMARK   81  A    between atoms: _202  and  _203
REMARK   82  A    between atoms: _203  and  _204
REMARK   83  A    between atoms: _204  and  _205
REMARK   84  A    between atoms: _205  and  _206
REMARK   85  A    between atoms: _210  and  _212
REMARK   86  A    between atoms: _212  and  _213
REMARK   87  A    between atoms: _212  and  _215
REMARK   88  A    between atoms: _215  and  _216
REMARK   89  A    between atoms: _216  and  _217
REMARK   90  A    between atoms: _217  and  _218
REMARK   91  A    between atoms: _227  and  _229
REMARK   92  A    between atoms: _229  and  _230
REMARK   93  A    between atoms: _229  and  _232
REMARK   94  A    between atoms: _232  and  _233
REMARK   95  A    between atoms: _236  and  _238
REMARK   96  A    between atoms: _238  and  _239
REMARK   97  A    between atoms: _238  and  _241
REMARK   98  A    between atoms: _241  and  _242
REMARK   99  A    between atoms: _246  and  _247
REMARK  100  A    between atoms: _252  and  _254
REMARK  101  A    between atoms: _254  and  _255
REMARK  102  A    between atoms: _254  and  _257
REMARK  103  A    between atoms: _257  and  _258
REMARK  104  A    between atoms: _258  and  _259
REMARK  105  A    between atoms: _262  and  _264
REMARK  106  A    between atoms: _264  and  _265
REMARK  107  A    between atoms: _264  and  _267
REMARK  108  A    between atoms: _267  and  _268
REMARK  109  A    between atoms: _273  and  _275
REMARK  110  A    between atoms: _275  and  _276
REMARK  111  A    between atoms: _275  and  _278
REMARK  112  A    between atoms: _278  and  _279
REMARK  113  A    between atoms: _279  and  _280
REMARK  114  A    between atoms: _280  and  _281
REMARK  115  A    between atoms: _281  and  _282
REMARK  116  A    between atoms: _286  and  _288
REMARK  117  A    between atoms: _288  and  _289
REMARK  118  A    between atoms: _288  and  _291
REMARK  119  A    between atoms: _291  and  _292
REMARK  120  A    between atoms: _302  and  _304
REMARK  121  A    between atoms: _304  and  _305
REMARK  122  A    between atoms: _304  and  _307
REMARK  123  A    between atoms: _307  and  _308
REMARK                            x       y       z     vdW  Elec       q    Type
REMARK                         _______ _______ _______ _____ _____    ______ ____
ROOT
ATOM      1  CA  LEU A   1      87.736  66.077  25.922  0.00  0.00    +0.133 C 
ENDROOT
BRANCH   1   2
ATOM      2  N   LEU A   1      89.087  65.787  26.411  0.00  0.00    -0.239 NA
ATOM      3  H   LEU A   1      89.271  64.886  26.896  0.00  0.00    +0.142 HD
ENDBRANCH   1   2
BRANCH   1   4
ATOM      4  C   LEU A   1      87.176  67.355  26.556  0.00  0.00    +0.224 C 
ATOM      5  O   LEU A   1      86.692  68.247  25.848  0.00  0.00    -0.287 OA
ENDBRANCH   1   4
BRANCH   1   6
ATOM      6  CB  LEU A   1      86.802  64.891  26.189  0.00  0.00    +0.025 C 
BRANCH   6   7
ATOM      7  CG  LEU A   1      87.048  63.678  25.275  0.00  0.00    +0.002 C 
ATOM      8  CD2 LEU A   1      86.624  62.381  25.952  0.00  0.00    +0.000 C 
ATOM      9  CD1 LEU A   1      86.332  63.859  23.932  0.00  0.00    +0.000 C 
ENDBRANCH   6   7
ENDBRANCH   1   6
TORSDOF 4
REMARK  Name = ../refined-set-2016/3gta/3gta_pocket.pdb
REMARK  123 active torsions:
REMARK  status: ('A' for Active; 'I' for Inactive)
REMARK    1  A    between atoms: _1  and  _3
REMARK    2  A    between atoms: _3  and  _4
REMARK    3  A    between atoms: _3  and  _6
REMARK    4  A    between atoms: _9  and  _11
REMARK    5  A    between atoms: _11  and  _12
REMARK    6  A    between atoms: _11  and  _14
REMARK    7  A    between atoms: _14  and  _15
REMARK    8  A    between atoms: _18  and  _20
REMARK    9  A    between atoms: _20  and  _21
REMARK   10  A    between atoms: _20  and  _23
REMARK   11  A    between atoms: _23  and  _24
REMARK   12  A    between atoms: _30  and  _32
REMARK   13  A    between atoms: _32  and  _33
REMARK   14  A    between atoms: _32  and  _35
REMARK   15  A    between atoms: _35  and  _36
REMARK   16  A    between atoms: _42  and  _44
REMARK   17  A    between atoms: _44  and  _45
REMARK   18  A    between atoms: _44  and  _47
REMARK   19  A    between atoms: _47  and  _48
REMARK   20  A    between atoms: _51  and  _53
REMARK   21  A    between atoms: _53  and  _54
REMARK   22  A    between atoms: _53  and  _56
REMARK   23  A    between atoms: _56  and  _57
REMARK   24  A    between atoms: _62  and  _64
REMARK   25  A    between atoms: _64  and  _65
REMARK   26  A    between atoms: _64  and  _67
REMARK   27  A    between atoms: _67  and  _68
REMARK   28  A    between atoms: _68  and  _69
REMARK   29  A    between atoms: _74  and  _76
REMARK   30  A    between atoms: _76  and  _77
REMARK   31  A    between atoms: _76  and  _79
REMARK   32  A    between atoms: _79  and  _80
REMARK   33  A    between atoms: _83  and  _85
REMARK   34  A    between atoms: _85  and  _86
REMARK   35  A    between atoms: _85  and  _88
REMARK   36  A    between atoms: _88  and  _89
REMARK   37  A    between atoms: _89  and  _90
REMARK   38  A    between atoms: _90  and  _91
REMARK   39  A    between atoms: _91  and  _92
REMARK   40  A    between atoms: _96  and  _98
REMARK   41  A    between atoms: _98  and  _99
REMARK   42  A    between atoms: _98  and  _101
REMARK   43  A    between atoms: _104  and  _106
REMARK   44  A    between atoms: _106  and  _107
REMARK   45  A    between atoms: _106  and  _109
REMARK   46  A    between atoms: _109  and  _110
REMARK   47  A    between atoms: _110  and  _111
REMARK   48  A    between atoms: _111  and  _112
REMARK   49  A    between atoms: _121  and  _123
REMARK   50  A    between atoms: _123  and  _124
REMARK   51  A    between atoms: _123  and  _126
REMARK   52  A    between atoms: _128  and  _130
REMARK   53  A    between atoms: _130  and  _131
REMARK   54  A    between atoms: _130  and  _133
REMARK   55  A    between atoms: _133  and  _134
REMARK   56  A    between atoms: _139  and  _140
REMARK   57  A    between atoms: _142  and  _144
REMARK   58  A    between atoms: _144  and  _145
REMARK   59  A    between atoms: _147  and  _149
REMARK   60  A    between atoms: _149  and  _150
REMARK   61  A    between atoms: _152  and  _154
REMARK   62  A    between atoms: _154  and  _155
REMARK   63  A    between atoms: _154  and  _157
REMARK   64  A    between atoms: _157  and  _158
REMARK   65  A    between atoms: _161  and  _163
REMARK   66  A    between atoms: _163  and  _164
REMARK   67  A    between atoms: _163  and  _166
REMARK   68  A    between atoms: _166  and  _167
REMARK   69  A    between atoms: _167  and  _168
REMARK   70  A    between atoms: _173  and  _175
REMARK   71  A    between atoms: _175  and  _176
REMARK   72  A    between atoms: _175  and  _178
REMARK   73  A    between atoms: _178  and  _179
REMARK   74  A    between atoms: _181  and  _183
REMARK   75  A    between atoms: _183  and  _184
REMARK   76  A    between atoms: _183  and  _186
REMARK   77  A    between atoms: _186  and  _187
REMARK   78  A    between atoms: _197  and  _199
REMARK   79  A    between atoms: _199  and  _200
REMARK   80  A    between atoms: _199  and  _202
REMARK   81  A    between atoms: _202  and  _203
REMARK   82  A    between atoms: _203  and  _204
REMARK   83  A    between atoms: _204  and  _205
REMARK   84  A    between atoms: _205  and  _206
REMARK   85  A    between atoms: _210  and  _212
REMARK   86  A    between atoms: _212  and  _213
REMARK   87  A    between atoms: _212  and  _215
REMARK   88  A    between atoms: _215  and  _216
REMARK   89  A    between atoms: _216  and  _217
REMARK   90  A    between atoms: _217  and  _218
REMARK   91  A    between atoms: _227  and  _229
REMARK   92  A    between atoms: _229  and  _230
REMARK   93  A    between atoms: _229  and  _232
REMARK   94  A    between atoms: _232  and  _233
REMARK   95  A    between atoms: _236  and  _238
REMARK   96  A    between atoms: _238  and  _239
REMARK   97  A    between atoms: _238  and  _241
REMARK   98  A    between atoms: _241  and  _242
REMARK   99  A    between atoms: _246  and  _247
REMARK  100  A    between atoms: _252  and  _254
REMARK  101  A    between atoms: _254  and  _255
REMARK  102  A    between atoms: _254  and  _257
REMARK  103  A    between atoms: _257  and  _258
REMARK  104  A    between atoms: _258  and  _259
REMARK  105  A    between atoms: _262  and  _264
REMARK  106  A    between atoms: _264  and  _265
REMARK  107  A    between atoms: _264  and  _267
REMARK  108  A    between atoms: _267  and  _268
REMARK  109  A    between atoms: _273  and  _275
REMARK  110  A    between atoms: _275  and  _276
REMARK  111  A    between atoms: _275  and  _278
REMARK  112  A    between atoms: _278  and  _279
REMARK  113  A    between atoms: _279  and  _280
REMARK  114  A    between atoms: _280  and  _281
REMARK  115  A    between atoms: _281  and  _282
REMARK  116  A    between atoms: _286  and  _288
REMARK  117  A    between atoms: _288  and  _289
REMARK  118  A    between atoms: _288  and  _291
REMARK  119  A    between atoms: _291  and  _292
REMARK  120  A    between atoms: _302  and  _304
REMARK  121  A    between atoms: _304  and  _305
REMARK  122  A    between atoms: _304  and  _307
REMARK  123  A    between atoms: _307  and  _308
REMARK                            x       y       z     vdW  Elec       q    Type
REMARK                         _______ _______ _______ _____ _____    ______ ____
ROOT
ATOM      1  C   PHE A   1      82.706  68.350  26.641  0.00  0.00    +0.239 C 
ATOM      2  O   PHE A   1      83.511  68.281  27.569  0.00  0.00    -0.274 OA
ATOM      3  N   PHE A   2      81.418  68.038  26.764  0.00  0.00    -0.298 N 
ATOM      4  H   PHE A   2      80.764  68.301  25.999  0.00  0.00    +0.150 HD
ENDROOT
BRANCH   1   5
ATOM      5  CA  PHE A   1      83.154  68.800  25.256  0.00  0.00    +0.149 C 
BRANCH   5   6
ATOM      6  N   PHE A   1      84.159  69.861  25.290  0.00  0.00    -0.238 NA
ATOM      7  H   PHE A   1      85.164  69.601  25.356  0.00  0.00    +0.142 HD
ENDBRANCH   5   6
BRANCH   5   8
ATOM      8  CB  PHE A   1      83.683  67.577  24.490  0.00  0.00    +0.053 C 
BRANCH   8   9
ATOM      9  CG  PHE A   1      84.014  67.858  23.044  0.00  0.00    -0.020 A 
ATOM     10  CD2 PHE A   1      85.327  67.863  22.601  0.00  0.00    -0.004 A 
ATOM     11  CE2 PHE A   1      85.627  68.125  21.264  0.00  0.00    -0.000 A 
ATOM     12  CZ  PHE A   1      84.603  68.380  20.364  0.00  0.00    -0.000 A 
ATOM     13  CE1 PHE A   1      83.291  68.378  20.799  0.00  0.00    -0.000 A 
ATOM     14  CD1 PHE A   1      83.002  68.112  22.126  0.00  0.00    -0.004 A 
ENDBRANCH   8   9
ENDBRANCH   5   8
ENDBRANCH   1   5
BRANCH   3  15
ATOM     15  CA  PHE A   2      80.886  67.339  27.936  0.00  0.00    +0.141 C 
BRANCH  15  16
ATOM     16  C   PHE A   2      80.260  66.025  27.479  0.00  0.00    +0.227 C 
ATOM     17  O   PHE A   2      79.854  65.899  26.323  0.00  0.00    -0.286 OA
ENDBRANCH  15  16
BRANCH  15  18
ATOM     18  CB  PHE A   2      79.865  68.193  28.703  0.00  0.00    +0.054 C 
BRANCH  18  19
ATOM     19  CG  PHE A   2      78.653  68.600  27.893  0.00  0.00    -0.020 A 
ATOM     20  CD2 PHE A   2      77.535  67.779  27.820  0.00  0.00    -0.004 A 
ATOM     21  CE2 PHE A   2      76.421  68.150  27.083  0.00  0.00    -0.000 A 
ATOM     22  CZ  PHE A   2      76.404  69.361  26.412  0.00  0.00    -0.000 A 
ATOM     23  CE1 PHE A   2      77.508  70.197  26.482  0.00  0.00    -0.000 A 
ATOM     24  CD1 PHE A   2      78.627  69.816  27.223  0.00  0.00    -0.004 A 
ENDBRANCH  18  19
ENDBRANCH  15  18
ENDBRANCH   3  15
TORSDOF 8
REMARK  Name = ../refined-set-2016/3gta/3gta_pocket.pdb
REMARK  123 active torsions:
REMARK  status: ('A' for Active; 'I' for Inactive)
REMARK    1  A    between atoms: _1  and  _3
REMARK    2  A    between atoms: _3  and  _4
REMARK    3  A    between atoms: _3  and  _6
REMARK    4  A    between atoms: _9  and  _11
REMARK    5  A    between atoms: _11  and  _12
REMARK    6  A    between atoms: _11  and  _14
REMARK    7  A    between atoms: _14  and  _15
REMARK    8  A    between atoms: _18  and  _20
REMARK    9  A    between atoms: _20  and  _21
REMARK   10  A    between atoms: _20  and  _23
REMARK   11  A    between atoms: _23  and  _24
REMARK   12  A    between atoms: _30  and  _32
REMARK   13  A    between atoms: _32  and  _33
REMARK   14  A    between atoms: _32  and  _35
REMARK   15  A    between atoms: _35  and  _36
REMARK   16  A    between atoms: _42  and  _44
REMARK   17  A    between atoms: _44  and  _45
REMARK   18  A    between atoms: _44  and  _47
REMARK   19  A    between atoms: _47  and  _48
REMARK   20  A    between atoms: _51  and  _53
REMARK   21  A    between atoms: _53  and  _54
REMARK   22  A    between atoms: _53  and  _56
REMARK   23  A    between atoms: _56  and  _57
REMARK   24  A    between atoms: _62  and  _64
REMARK   25  A    between atoms: _64  and  _65
REMARK   26  A    between atoms: _64  and  _67
REMARK   27  A    between atoms: _67  and  _68
REMARK   28  A    between atoms: _68  and  _69
REMARK   29  A    between atoms: _74  and  _76
REMARK   30  A    between atoms: _76  and  _77
REMARK   31  A    between atoms: _76  and  _79
REMARK   32  A    between atoms: _79  and  _80
REMARK   33  A    between atoms: _83  and  _85
REMARK   34  A    between atoms: _85  and  _86
REMARK   35  A    between atoms: _85  and  _88
REMARK   36  A    between atoms: _88  and  _89
REMARK   37  A    between atoms: _89  and  _90
REMARK   38  A    between atoms: _90  and  _91
REMARK   39  A    between atoms: _91  and  _92
REMARK   40  A    between atoms: _96  and  _98
REMARK   41  A    between atoms: _98  and  _99
REMARK   42  A    between atoms: _98  and  _101
REMARK   43  A    between atoms: _104  and  _106
REMARK   44  A    between atoms: _106  and  _107
REMARK   45  A    between atoms: _106  and  _109
REMARK   46  A    between atoms: _109  and  _110
REMARK   47  A    between atoms: _110  and  _111
REMARK   48  A    between atoms: _111  and  _112
REMARK   49  A    between atoms: _121  and  _123
REMARK   50  A    between atoms: _123  and  _124
REMARK   51  A    between atoms: _123  and  _126
REMARK   52  A    between atoms: _128  and  _130
REMARK   53  A    between atoms: _130  and  _131
REMARK   54  A    between atoms: _130  and  _133
REMARK   55  A    between atoms: _133  and  _134
REMARK   56  A    between atoms: _139  and  _140
REMARK   57  A    between atoms: _142  and  _144
REMARK   58  A    between atoms: _144  and  _145
REMARK   59  A    between atoms: _147  and  _149
REMARK   60  A    between atoms: _149  and  _150
REMARK   61  A    between atoms: _152  and  _154
REMARK   62  A    between atoms: _154  and  _155
REMARK   63  A    between atoms: _154  and  _157
REMARK   64  A    between atoms: _157  and  _158
REMARK   65  A    between atoms: _161  and  _163
REMARK   66  A    between atoms: _163  and  _164
REMARK   67  A    between atoms: _163  and  _166
REMARK   68  A    between atoms: _166  and  _167
REMARK   69  A    between atoms: _167  and  _168
REMARK   70  A    between atoms: _173  and  _175
REMARK   71  A    between atoms: _175  and  _176
REMARK   72  A    between atoms: _175  and  _178
REMARK   73  A    between atoms: _178  and  _179
REMARK   74  A    between atoms: _181  and  _183
REMARK   75  A    between atoms: _183  and  _184
REMARK   76  A    between atoms: _183  and  _186
REMARK   77  A    between atoms: _186  and  _187
REMARK   78  A    between atoms: _197  and  _199
REMARK   79  A    between atoms: _199  and  _200
REMARK   80  A    between atoms: _199  and  _202
REMARK   81  A    between atoms: _202  and  _203
REMARK   82  A    between atoms: _203  and  _204
REMARK   83  A    between atoms: _204  and  _205
REMARK   84  A    between atoms: _205  and  _206
REMARK   85  A    between atoms: _210  and  _212
REMARK   86  A    between atoms: _212  and  _213
REMARK   87  A    between atoms: _212  and  _215
REMARK   88  A    between atoms: _215  and  _216
REMARK   89  A    between atoms: _216  and  _217
REMARK   90  A    between atoms: _217  and  _218
REMARK   91  A    between atoms: _227  and  _229
REMARK   92  A    between atoms: _229  and  _230
REMARK   93  A    between atoms: _229  and  _232
REMARK   94  A    between atoms: _232  and  _233
REMARK   95  A    between atoms: _236  and  _238
REMARK   96  A    between atoms: _238  and  _239
REMARK   97  A    between atoms: _238  and  _241
REMARK   98  A    between atoms: _241  and  _242
REMARK   99  A    between atoms: _246  and  _247
REMARK  100  A    between atoms: _252  and  _254
REMARK  101  A    between atoms: _254  and  _255
REMARK  102  A    between atoms: _254  and  _257
REMARK  103  A    between atoms: _257  and  _258
REMARK  104  A    between atoms: _258  and  _259
REMARK  105  A    between atoms: _262  and  _264
REMARK  106  A    between atoms: _264  and  _265
REMARK  107  A    between atoms: _264  and  _267
REMARK  108  A    between atoms: _267  and  _268
REMARK  109  A    between atoms: _273  and  _275
REMARK  110  A    between atoms: _275  and  _276
REMARK  111  A    between atoms: _275  and  _278
REMARK  112  A    between atoms: _278  and  _279
REMARK  113  A    between atoms: _279  and  _280
REMARK  114  A    between atoms: _280  and  _281
REMARK  115  A    between atoms: _281  and  _282
REMARK  116  A    between atoms: _286  and  _288
REMARK  117  A    between atoms: _288  and  _289
REMARK  118  A    between atoms: _288  and  _291
REMARK  119  A    between atoms: _291  and  _292
REMARK  120  A    between atoms: _302  and  _304
REMARK  121  A    between atoms: _304  and  _305
REMARK  122  A    between atoms: _304  and  _307
REMARK  123  A    between atoms: _307  and  _308
REMARK                            x       y       z     vdW  Elec       q    Type
REMARK                         _______ _______ _______ _____ _____    ______ ____
ROOT
ATOM      1  CA  THR A   1      75.853  63.403  27.316  0.00  0.00    +0.160 C 
ENDROOT
BRANCH   1   2
ATOM      2  N   THR A   1      77.320  63.413  27.236  0.00  0.00    -0.237 NA
ATOM      3  H   THR A   1      77.792  63.066  26.377  0.00  0.00    +0.142 HD
ENDBRANCH   1   2
BRANCH   1   4
ATOM      4  C   THR A   1      75.334  62.352  28.302  0.00  0.00    +0.227 C 
ATOM      5  O   THR A   1      74.214  62.468  28.809  0.00  0.00    -0.287 OA
ENDBRANCH   1   4
BRANCH   1   6
ATOM      6  CB  THR A   1      75.190  63.149  25.947  0.00  0.00    +0.134 C 
ATOM      7  CG2 THR A   1      75.646  64.178  24.924  0.00  0.00    +0.034 C 
BRANCH   6   8
ATOM      8  OG1 THR A   1      75.497  61.821  25.499  0.00  0.00    -0.383 OA
ATOM      9  HG1 THR A   1      76.478  61.722  25.412  0.00  0.00    +0.210 HD
ENDBRANCH   6   8
ENDBRANCH   1   6
TORSDOF 4
REMARK  Name = ../refined-set-2016/3gta/3gta_pocket.pdb
REMARK  123 active torsions:
REMARK  status: ('A' for Active; 'I' for Inactive)
REMARK    1  A    between atoms: _1  and  _3
REMARK    2  A    between atoms: _3  and  _4
REMARK    3  A    between atoms: _3  and  _6
REMARK    4  A    between atoms: _9  and  _11
REMARK    5  A    between atoms: _11  and  _12
REMARK    6  A    between atoms: _11  and  _14
REMARK    7  A    between atoms: _14  and  _15
REMARK    8  A    between atoms: _18  and  _20
REMARK    9  A    between atoms: _20  and  _21
REMARK   10  A    between atoms: _20  and  _23
REMARK   11  A    between atoms: _23  and  _24
REMARK   12  A    between atoms: _30  and  _32
REMARK   13  A    between atoms: _32  and  _33
REMARK   14  A    between atoms: _32  and  _35
REMARK   15  A    between atoms: _35  and  _36
REMARK   16  A    between atoms: _42  and  _44
REMARK   17  A    between atoms: _44  and  _45
REMARK   18  A    between atoms: _44  and  _47
REMARK   19  A    between atoms: _47  and  _48
REMARK   20  A    between atoms: _51  and  _53
REMARK   21  A    between atoms: _53  and  _54
REMARK   22  A    between atoms: _53  and  _56
REMARK   23  A    between atoms: _56  and  _57
REMARK   24  A    between atoms: _62  and  _64
REMARK   25  A    between atoms: _64  and  _65
REMARK   26  A    between atoms: _64  and  _67
REMARK   27  A    between atoms: _67  and  _68
REMARK   28  A    between atoms: _68  and  _69
REMARK   29  A    between atoms: _74  and  _76
REMARK   30  A    between atoms: _76  and  _77
REMARK   31  A    between atoms: _76  and  _79
REMARK   32  A    between atoms: _79  and  _80
REMARK   33  A    between atoms: _83  and  _85
REMARK   34  A    between atoms: _85  and  _86
REMARK   35  A    between atoms: _85  and  _88
REMARK   36  A    between atoms: _88  and  _89
REMARK   37  A    between atoms: _89  and  _90
REMARK   38  A    between atoms: _90  and  _91
REMARK   39  A    between atoms: _91  and  _92
REMARK   40  A    between atoms: _96  and  _98
REMARK   41  A    between atoms: _98  and  _99
REMARK   42  A    between atoms: _98  and  _101
REMARK   43  A    between atoms: _104  and  _106
REMARK   44  A    between atoms: _106  and  _107
REMARK   45  A    between atoms: _106  and  _109
REMARK   46  A    between atoms: _109  and  _110
REMARK   47  A    between atoms: _110  and  _111
REMARK   48  A    between atoms: _111  and  _112
REMARK   49  A    between atoms: _121  and  _123
REMARK   50  A    between atoms: _123  and  _124
REMARK   51  A    between atoms: _123  and  _126
REMARK   52  A    between atoms: _128  and  _130
REMARK   53  A    between atoms: _130  and  _131
REMARK   54  A    between atoms: _130  and  _133
REMARK   55  A    between atoms: _133  and  _134
REMARK   56  A    between atoms: _139  and  _140
REMARK   57  A    between atoms: _142  and  _144
REMARK   58  A    between atoms: _144  and  _145
REMARK   59  A    between atoms: _147  and  _149
REMARK   60  A    between atoms: _149  and  _150
REMARK   61  A    between atoms: _152  and  _154
REMARK   62  A    between atoms: _154  and  _155
REMARK   63  A    between atoms: _154  and  _157
REMARK   64  A    between atoms: _157  and  _158
REMARK   65  A    between atoms: _161  and  _163
REMARK   66  A    between atoms: _163  and  _164
REMARK   67  A    between atoms: _163  and  _166
REMARK   68  A    between atoms: _166  and  _167
REMARK   69  A    between atoms: _167  and  _168
REMARK   70  A    between atoms: _173  and  _175
REMARK   71  A    between atoms: _175  and  _176
REMARK   72  A    between atoms: _175  and  _178
REMARK   73  A    between atoms: _178  and  _179
REMARK   74  A    between atoms: _181  and  _183
REMARK   75  A    between atoms: _183  and  _184
REMARK   76  A    between atoms: _183  and  _186
REMARK   77  A    between atoms: _186  and  _187
REMARK   78  A    between atoms: _197  and  _199
REMARK   79  A    between atoms: _199  and  _200
REMARK   80  A    between atoms: _199  and  _202
REMARK   81  A    between atoms: _202  and  _203
REMARK   82  A    between atoms: _203  and  _204
REMARK   83  A    between atoms: _204  and  _205
REMARK   84  A    between atoms: _205  and  _206
REMARK   85  A    between atoms: _210  and  _212
REMARK   86  A    between atoms: _212  and  _213
REMARK   87  A    between atoms: _212  and  _215
REMARK   88  A    between atoms: _215  and  _216
REMARK   89  A    between atoms: _216  and  _217
REMARK   90  A    between atoms: _217  and  _218
REMARK   91  A    between atoms: _227  and  _229
REMARK   92  A    between atoms: _229  and  _230
REMARK   93  A    between atoms: _229  and  _232
REMARK   94  A    between atoms: _232  and  _233
REMARK   95  A    between atoms: _236  and  _238
REMARK   96  A    between atoms: _238  and  _239
REMARK   97  A    between atoms: _238  and  _241
REMARK   98  A    between atoms: _241  and  _242
REMARK   99  A    between atoms: _246  and  _247
REMARK  100  A    between atoms: _252  and  _254
REMARK  101  A    between atoms: _254  and  _255
REMARK  102  A    between atoms: _254  and  _257
REMARK  103  A    between atoms: _257  and  _258
REMARK  104  A    between atoms: _258  and  _259
REMARK  105  A    between atoms: _262  and  _264
REMARK  106  A    between atoms: _264  and  _265
REMARK  107  A    between atoms: _264  and  _267
REMARK  108  A    between atoms: _267  and  _268
REMARK  109  A    between atoms: _273  and  _275
REMARK  110  A    between atoms: _275  and  _276
REMARK  111  A    between atoms: _275  and  _278
REMARK  112  A    between atoms: _278  and  _279
REMARK  113  A    between atoms: _279  and  _280
REMARK  114  A    between atoms: _280  and  _281
REMARK  115  A    between atoms: _281  and  _282
REMARK  116  A    between atoms: _286  and  _288
REMARK  117  A    between atoms: _288  and  _289
REMARK  118  A    between atoms: _288  and  _291
REMARK  119  A    between atoms: _291  and  _292
REMARK  120  A    between atoms: _302  and  _304
REMARK  121  A    between atoms: _304  and  _305
REMARK  122  A    between atoms: _304  and  _307
REMARK  123  A    between atoms: _307  and  _308
REMARK                            x       y       z     vdW  Elec       q    Type
REMARK                         _______ _______ _______ _____ _____    ______ ____
ROOT
ATOM      1  CA  LYS A   4      78.340  60.817  22.720  0.00  0.00    +0.149 C 
ENDROOT
BRANCH   1   2
ATOM      2  C   LYS A   4      78.750  62.005  23.586  0.00  0.00    +0.241 C 
ATOM      3  O   LYS A   4      78.467  62.033  24.785  0.00  0.00    -0.273 OA
ATOM      4  N   VAL A   5      79.420  62.977  22.975  0.00  0.00    -0.297 N 
ATOM      5  H   VAL A   5      79.686  62.849  21.978  0.00  0.00    +0.150 HD
BRANCH   4   6
ATOM      6  CA  VAL A   5      79.797  64.215  23.647  0.00  0.00    +0.149 C 
BRANCH   6   7
ATOM      7  C   VAL A   5      79.296  65.404  22.838  0.00  0.00    +0.241 C 
ATOM      8  N   ARG A   6      79.263  66.573  23.470  0.00  0.00    -0.297 N 
ATOM      9  H   ARG A   6      79.562  66.620  24.465  0.00  0.00    +0.150 HD
ATOM     10  O   VAL A   5      78.939  65.265  21.667  0.00  0.00    -0.273 OA
BRANCH   8  11
ATOM     11  CA  ARG A   6      78.819  67.789  22.806  0.00  0.00    +0.149 C 
BRANCH  11  12
ATOM     12  C   ARG A   6      79.637  68.991  23.265  0.00  0.00    +0.241 C 
ATOM     13  O   ARG A   6      80.011  69.079  24.433  0.00  0.00    -0.273 OA
ATOM     14  N   CYS A   7      79.908  69.913  22.343  0.00  0.00    -0.297 N 
ATOM     15  H   CYS A   7      79.623  69.745  21.357  0.00  0.00    +0.150 HD
BRANCH  14  16
ATOM     16  CA  CYS A   7      80.596  71.154  22.685  0.00  0.00    +0.149 C 
BRANCH  16  17
ATOM     17  C   CYS A   7      79.621  72.154  23.284  0.00  0.00    +0.228 C 
ATOM     18  O   CYS A   7      78.551  72.384  22.731  0.00  0.00    -0.286 OA
ENDBRANCH  16  17
BRANCH  16  19
ATOM     19  CB  CYS A   7      81.250  71.758  21.448  0.00  0.00    +0.096 C 
ATOM     20  SG  CYS A   7      81.956  73.394  21.695  0.00  0.00    -0.080 S 
ENDBRANCH  16  19
ENDBRANCH  14  16
ENDBRANCH  11  12
BRANCH  11  21
ATOM     21  CB  ARG A   6      77.341  68.024  23.096  0.00  0.00    +0.033 C 
BRANCH  21  22
ATOM     22  CG  ARG A   6      76.678  68.947  22.114  0.00  0.00    +0.045 C 
BRANCH  22  23
ATOM     23  CD  ARG A   6      75.208  69.129  22.432  0.00  0.00    +0.174 C 
BRANCH  23  24
ATOM     24  NE  ARG A   6      74.417  67.914  22.250  0.00  0.00    -0.265 N 
ATOM     25  HE  ARG A   6      74.202  67.348  23.096  0.00  0.00    +0.259 HD
ATOM     26  CZ  ARG A   6      73.951  67.478  21.082  0.00  0.00    +0.342 C 
ATOM     27  NH2 ARG A   6      73.224  66.374  21.040  0.00  0.00    -0.292 N 
ATOM     28 HH21 ARG A   6      73.020  65.852  21.916  0.00  0.00    +0.255 HD
ATOM     29 HH22 ARG A   6      72.857  66.028  20.131  0.00  0.00    +0.255 HD
ATOM     30  NH1 ARG A   6      74.218  68.122  19.950  0.00  0.00    -0.292 N 
ATOM     31 HH11 ARG A   6      74.801  68.983  19.967  0.00  0.00    +0.255 HD
ATOM     32 HH12 ARG A   6      73.844  67.765  19.048  0.00  0.00    +0.255 HD
ENDBRANCH  23  24
ENDBRANCH  22  23
ENDBRANCH  21  22
ENDBRANCH  11  21
ENDBRANCH   8  11
ENDBRANCH   6   7
BRANCH   6  33
ATOM     33  CB  VAL A   5      81.324  64.324  23.839  0.00  0.00    +0.027 C 
ATOM     34  CG2 VAL A   5      81.870  63.067  24.519  0.00  0.00    +0.002 C 
ATOM     35  CG1 VAL A   5      82.025  64.562  22.502  0.00  0.00    +0.002 C 
ENDBRANCH   6  33
ENDBRANCH   4   6
ENDBRANCH   1   2
BRANCH   1  37
ATOM     36  C   ASP A   3      80.049  59.153  23.245  0.00  0.00    +0.241 C 
ATOM     37  N   LYS A   4      78.784  59.566  23.329  0.00  0.00    -0.297 N 
ATOM     38  H   LYS A   4      78.094  58.981  23.842  0.00  0.00    +0.150 HD
ATOM     39  O   ASP A   3      80.935  59.822  22.707  0.00  0.00    -0.273 OA
BRANCH  36  40
ATOM     40  CA  ASP A   3      80.370  57.800  23.891  0.00  0.00    +0.160 C 
BRANCH  40  43
ATOM     41  C   GLN A   2      78.553  56.621  25.031  0.00  0.00    +0.241 C 
ATOM     42  O   GLN A   2      78.924  57.028  26.136  0.00  0.00    -0.273 OA
ATOM     43  N   ASP A   3      79.207  56.913  23.905  0.00  0.00    -0.297 N 
ATOM     44  H   ASP A   3      78.880  56.497  23.010  0.00  0.00    +0.150 HD
BRANCH  41  45
ATOM     45  CA  GLN A   2      77.296  55.740  24.923  0.00  0.00    +0.149 C 
BRANCH  45  47
ATOM     46  C   HIS A   1      75.860  57.613  25.589  0.00  0.00    +0.239 C 
ATOM     47  N   GLN A   2      76.194  56.327  25.681  0.00  0.00    -0.297 N 
ATOM     48  H   GLN A   2      75.647  55.715  26.320  0.00  0.00    +0.150 HD
ATOM     49  O   HIS A   1      76.442  58.418  24.850  0.00  0.00    -0.274 OA
BRANCH  46  50
ATOM     50  CA  HIS A   1      74.707  58.064  26.478  0.00  0.00    +0.151 C 
BRANCH  50  51
ATOM     51  N   HIS A   1      75.128  59.162  27.349  0.00  0.00    -0.238 NA
ATOM     52  H   HIS A   1      75.300  60.097  26.928  0.00  0.00    +0.142 HD
ENDBRANCH  50  51
BRANCH  50  53
ATOM     53  CB  HIS A   1      73.519  58.490  25.617  0.00  0.00    +0.074 C 
BRANCH  53  54
ATOM     54  CG  HIS A   1      72.247  58.663  26.388  0.00  0.00    +0.082 A 
ATOM     55  CD2 HIS A   1      71.808  58.077  27.527  0.00  0.00    +0.115 A 
ATOM     56  NE2 HIS A   1      70.568  58.599  27.800  0.00  0.00    -0.221 NA
ATOM     57  CE1 HIS A   1      70.255  59.475  26.862  0.00  0.00    +0.199 A 
ATOM     58  ND1 HIS A   1      71.254  59.537  26.000  0.00  0.00    -0.227 NA
ENDBRANCH  53  54
ENDBRANCH  50  53
ENDBRANCH  46  50
ENDBRANCH  45  47
BRANCH  45  59
ATOM     59  CB  GLN A   2      76.862  55.493  23.471  0.00  0.00    +0.039 C 
BRANCH  59  60
ATOM     60  CG  GLN A   2      75.670  54.536  23.327  0.00  0.00    +0.087 C 
BRANCH  60  61
ATOM     61  CD  GLN A   2      74.317  55.220  23.481  0.00  0.00    +0.219 C 
ATOM     62  NE2 GLN A   2      73.422  54.594  24.240  0.00  0.00    -0.329 N 
ATOM     63 HE21 GLN A   2      73.669  53.695  24.701  0.00  0.00    +0.145 HD
ATOM     64 HE22 GLN A   2      72.475  55.004  24.373  0.00  0.00    +0.145 HD
ATOM     65  OE1 GLN A   2      74.075  56.289  22.912  0.00  0.00    -0.275 OA
ENDBRANCH  60  61
ENDBRANCH  59  60
ENDBRANCH  45  59
ENDBRANCH  41  45
ENDBRANCH  40  43
BRANCH  40  66
ATOM     66  CB  ASP A   3      81.567  57.118  23.202  0.00  0.00    +0.143 C 
BRANCH  66  67
ATOM     67  CG  ASP A   3      81.348  56.867  21.712  0.00  0.00    +0.367 C 
ATOM     68  OD2 ASP A   3      80.205  56.978  21.215  0.00  0.00    -0.246 OA
ATOM     69  OD1 ASP A   3      82.344  56.535  21.032  0.00  0.00    -0.246 OA
ENDBRANCH  66  67
ENDBRANCH  40  66
ENDBRANCH  36  40
ENDBRANCH   1  37
BRANCH   1  70
ATOM     70  CB  LYS A   4      76.818  60.816  22.539  0.00  0.00    +0.029 C 
BRANCH  70  71
ATOM     71  CG  LYS A   4      76.289  59.798  21.535  0.00  0.00    +0.000 C 
BRANCH  71  72
ATOM     72  CD  LYS A   4      74.771  59.669  21.648  0.00  0.00    -0.024 C 
BRANCH  72  73
ATOM     73  CE  LYS A   4      74.161  58.958  20.451  0.00  0.00    -0.086 C 
BRANCH  73  74
ATOM     74  NZ  LYS A   4      74.621  57.551  20.334  0.00  0.00    +0.380 N 
ATOM     75  HZ1 LYS A   4      74.352  57.027  21.191  0.00  0.00    -0.089 HD
ATOM     76  HZ2 LYS A   4      75.655  57.534  20.226  0.00  0.00    -0.089 HD
ATOM     77  HZ3 LYS A   4      74.177  57.110  19.503  0.00  0.00    -0.089 HD
ENDBRANCH  73  74
ENDBRANCH  72  73
ENDBRANCH  71  72
ENDBRANCH  70  71
ENDBRANCH   1  70
TORSDOF 32
REMARK  Name = ../refined-set-2016/3gta/3gta_pocket.pdb
REMARK  123 active torsions:
REMARK  status: ('A' for Active; 'I' for Inactive)
REMARK    1  A    between atoms: _1  and  _3
REMARK    2  A    between atoms: _3  and  _4
REMARK    3  A    between atoms: _3  and  _6
REMARK    4  A    between atoms: _9  and  _11
REMARK    5  A    between atoms: _11  and  _12
REMARK    6  A    between atoms: _11  and  _14
REMARK    7  A    between atoms: _14  and  _15
REMARK    8  A    between atoms: _18  and  _20
REMARK    9  A    between atoms: _20  and  _21
REMARK   10  A    between atoms: _20  and  _23
REMARK   11  A    between atoms: _23  and  _24
REMARK   12  A    between atoms: _30  and  _32
REMARK   13  A    between atoms: _32  and  _33
REMARK   14  A    between atoms: _32  and  _35
REMARK   15  A    between atoms: _35  and  _36
REMARK   16  A    between atoms: _42  and  _44
REMARK   17  A    between atoms: _44  and  _45
REMARK   18  A    between atoms: _44  and  _47
REMARK   19  A    between atoms: _47  and  _48
REMARK   20  A    between atoms: _51  and  _53
REMARK   21  A    between atoms: _53  and  _54
REMARK   22  A    between atoms: _53  and  _56
REMARK   23  A    between atoms: _56  and  _57
REMARK   24  A    between atoms: _62  and  _64
REMARK   25  A    between atoms: _64  and  _65
REMARK   26  A    between atoms: _64  and  _67
REMARK   27  A    between atoms: _67  and  _68
REMARK   28  A    between atoms: _68  and  _69
REMARK   29  A    between atoms: _74  and  _76
REMARK   30  A    between atoms: _76  and  _77
REMARK   31  A    between atoms: _76  and  _79
REMARK   32  A    between atoms: _79  and  _80
REMARK   33  A    between atoms: _83  and  _85
REMARK   34  A    between atoms: _85  and  _86
REMARK   35  A    between atoms: _85  and  _88
REMARK   36  A    between atoms: _88  and  _89
REMARK   37  A    between atoms: _89  and  _90
REMARK   38  A    between atoms: _90  and  _91
REMARK   39  A    between atoms: _91  and  _92
REMARK   40  A    between atoms: _96  and  _98
REMARK   41  A    between atoms: _98  and  _99
REMARK   42  A    between atoms: _98  and  _101
REMARK   43  A    between atoms: _104  and  _106
REMARK   44  A    between atoms: _106  and  _107
REMARK   45  A    between atoms: _106  and  _109
REMARK   46  A    between atoms: _109  and  _110
REMARK   47  A    between atoms: _110  and  _111
REMARK   48  A    between atoms: _111  and  _112
REMARK   49  A    between atoms: _121  and  _123
REMARK   50  A    between atoms: _123  and  _124
REMARK   51  A    between atoms: _123  and  _126
REMARK   52  A    between atoms: _128  and  _130
REMARK   53  A    between atoms: _130  and  _131
REMARK   54  A    between atoms: _130  and  _133
REMARK   55  A    between atoms: _133  and  _134
REMARK   56  A    between atoms: _139  and  _140
REMARK   57  A    between atoms: _142  and  _144
REMARK   58  A    between atoms: _144  and  _145
REMARK   59  A    between atoms: _147  and  _149
REMARK   60  A    between atoms: _149  and  _150
REMARK   61  A    between atoms: _152  and  _154
REMARK   62  A    between atoms: _154  and  _155
REMARK   63  A    between atoms: _154  and  _157
REMARK   64  A    between atoms: _157  and  _158
REMARK   65  A    between atoms: _161  and  _163
REMARK   66  A    between atoms: _163  and  _164
REMARK   67  A    between atoms: _163  and  _166
REMARK   68  A    between atoms: _166  and  _167
REMARK   69  A    between atoms: _167  and  _168
REMARK   70  A    between atoms: _173  and  _175
REMARK   71  A    between atoms: _175  and  _176
REMARK   72  A    between atoms: _175  and  _178
REMARK   73  A    between atoms: _178  and  _179
REMARK   74  A    between atoms: _181  and  _183
REMARK   75  A    between atoms: _183  and  _184
REMARK   76  A    between atoms: _183  and  _186
REMARK   77  A    between atoms: _186  and  _187
REMARK   78  A    between atoms: _197  and  _199
REMARK   79  A    between atoms: _199  and  _200
REMARK   80  A    between atoms: _199  and  _202
REMARK   81  A    between atoms: _202  and  _203
REMARK   82  A    between atoms: _203  and  _204
REMARK   83  A    between atoms: _204  and  _205
REMARK   84  A    between atoms: _205  and  _206
REMARK   85  A    between atoms: _210  and  _212
REMARK   86  A    between atoms: _212  and  _213
REMARK   87  A    between atoms: _212  and  _215
REMARK   88  A    between atoms: _215  and  _216
REMARK   89  A    between atoms: _216  and  _217
REMARK   90  A    between atoms: _217  and  _218
REMARK   91  A    between atoms: _227  and  _229
REMARK   92  A    between atoms: _229  and  _230
REMARK   93  A    between atoms: _229  and  _232
REMARK   94  A    between atoms: _232  and  _233
REMARK   95  A    between atoms: _236  and  _238
REMARK   96  A    between atoms: _238  and  _239
REMARK   97  A    between atoms: _238  and  _241
REMARK   98  A    between atoms: _241  and  _242
REMARK   99  A    between atoms: _246  and  _247
REMARK  100  A    between atoms: _252  and  _254
REMARK  101  A    between atoms: _254  and  _255
REMARK  102  A    between atoms: _254  and  _257
REMARK  103  A    between atoms: _257  and  _258
REMARK  104  A    between atoms: _258  and  _259
REMARK  105  A    between atoms: _262  and  _264
REMARK  106  A    between atoms: _264  and  _265
REMARK  107  A    between atoms: _264  and  _267
REMARK  108  A    between atoms: _267  and  _268
REMARK  109  A    between atoms: _273  and  _275
REMARK  110  A    between atoms: _275  and  _276
REMARK  111  A    between atoms: _275  and  _278
REMARK  112  A    between atoms: _278  and  _279
REMARK  113  A    between atoms: _279  and  _280
REMARK  114  A    between atoms: _280  and  _281
REMARK  115  A    between atoms: _281  and  _282
REMARK  116  A    between atoms: _286  and  _288
REMARK  117  A    between atoms: _288  and  _289
REMARK  118  A    between atoms: _288  and  _291
REMARK  119  A    between atoms: _291  and  _292
REMARK  120  A    between atoms: _302  and  _304
REMARK  121  A    between atoms: _304  and  _305
REMARK  122  A    between atoms: _304  and  _307
REMARK  123  A    between atoms: _307  and  _308
REMARK                            x       y       z     vdW  Elec       q    Type
REMARK                         _______ _______ _______ _____ _____    ______ ____
ROOT
ATOM      1  CA  SER A   6      82.108  56.706  17.742  0.00  0.00    +0.178 C 
ENDROOT
BRANCH   1   2
ATOM      2  C   SER A   6      83.587  57.100  17.737  0.00  0.00    +0.243 C 
ATOM      3  N   TRP A   7      84.065  57.466  18.920  0.00  0.00    -0.297 N 
ATOM      4  H   TRP A   7      83.416  57.493  19.732  0.00  0.00    +0.150 HD
ATOM      5  O   SER A   6      84.270  57.069  16.700  0.00  0.00    -0.273 OA
BRANCH   3   6
ATOM      6  CA  TRP A   7      85.458  57.831  19.131  0.00  0.00    +0.153 C 
BRANCH   6   7
ATOM      7  C   TRP A   7      86.358  56.615  18.948  0.00  0.00    +0.241 C 
ATOM      8  O   TRP A   7      86.034  55.515  19.406  0.00  0.00    -0.273 OA
ATOM      9  N   LYS A   8      87.476  56.823  18.258  0.00  0.00    -0.297 N 
ATOM     10  H   LYS A   8      87.644  57.765  17.851  0.00  0.00    +0.150 HD
BRANCH   9  11
ATOM     11  CA  LYS A   8      88.476  55.781  18.050  0.00  0.00    +0.149 C 
BRANCH  11  12
ATOM     12  C   LYS A   8      89.659  56.020  18.971  0.00  0.00    +0.241 C 
ATOM     13  N   ARG A   9      90.325  54.939  19.365  0.00  0.00    -0.298 N 
ATOM     14  H   ARG A   9      90.016  54.002  19.038  0.00  0.00    +0.150 HD
ATOM     15  O   LYS A   8      89.957  57.161  19.324  0.00  0.00    -0.273 OA
BRANCH  13  16
ATOM     16  CA  ARG A   9      91.482  55.043  20.248  0.00  0.00    +0.137 C 
BRANCH  16  17
ATOM     17  C   ARG A   9      92.524  55.979  19.643  0.00  0.00    +0.227 C 
ATOM     18  O   ARG A   9      92.848  55.888  18.452  0.00  0.00    -0.286 OA
ENDBRANCH  16  17
BRANCH  16  19
ATOM     19  CB  ARG A   9      92.079  53.663  20.553  0.00  0.00    +0.031 C 
BRANCH  19  20
ATOM     20  CG  ARG A   9      92.559  52.881  19.333  0.00  0.00    +0.045 C 
BRANCH  20  21
ATOM     21  CD  ARG A   9      93.209  51.538  19.684  0.00  0.00    +0.174 C 
BRANCH  21  22
ATOM     22  NE  ARG A   9      92.465  50.759  20.674  0.00  0.00    -0.265 N 
ATOM     23  HE  ARG A   9      91.641  51.205  21.126  0.00  0.00    +0.259 HD
ATOM     24  CZ  ARG A   9      92.776  49.512  21.034  0.00  0.00    +0.342 C 
ATOM     25  NH2 ARG A   9      92.048  48.888  21.951  0.00  0.00    -0.292 N 
ATOM     26 HH21 ARG A   9      91.237  49.371  22.388  0.00  0.00    +0.255 HD
ATOM     27 HH22 ARG A   9      92.288  47.916  22.233  0.00  0.00    +0.255 HD
ATOM     28  NH1 ARG A   9      93.802  48.877  20.472  0.00  0.00    -0.292 N 
ATOM     29 HH11 ARG A   9      94.034  47.905  20.761  0.00  0.00    +0.255 HD
ATOM     30 HH12 ARG A   9      94.372  49.352  19.743  0.00  0.00    +0.255 HD
ENDBRANCH  21  22
ENDBRANCH  20  21
ENDBRANCH  19  20
ENDBRANCH  16  19
ENDBRANCH  13  16
ENDBRANCH  11  12
BRANCH  11  31
ATOM     31  CB  LYS A   8      88.941  55.770  16.593  0.00  0.00    +0.029 C 
BRANCH  31  32
ATOM     32  CG  LYS A   8      87.836  55.469  15.583  0.00  0.00    +0.000 C 
BRANCH  32  33
ATOM     33  CD  LYS A   8      87.058  54.214  15.965  0.00  0.00    -0.024 C 
BRANCH  33  34
ATOM     34  CE  LYS A   8      86.245  53.669  14.808  0.00  0.00    -0.086 C 
BRANCH  34  35
ATOM     35  NZ  LYS A   8      85.246  52.669  15.283  0.00  0.00    +0.380 N 
ATOM     36  HZ1 LYS A   8      84.601  53.121  15.962  0.00  0.00    -0.089 HD
ATOM     37  HZ2 LYS A   8      85.740  51.880  15.746  0.00  0.00    -0.089 HD
ATOM     38  HZ3 LYS A   8      84.703  52.311  14.472  0.00  0.00    -0.089 HD
ENDBRANCH  34  35
ENDBRANCH  33  34
ENDBRANCH  32  33
ENDBRANCH  31  32
ENDBRANCH  11  31
ENDBRANCH   9  11
ENDBRANCH   6   7
BRANCH   6  39
ATOM     39  CB  TRP A   7      85.642  58.417  20.532  0.00  0.00    +0.057 C 
BRANCH  39  40
ATOM     40  CG  TRP A   7      84.994  59.755  20.683  0.00  0.00    -0.002 A 
ATOM     41  CD1 TRP A   7      83.693  60.009  21.008  0.00  0.00    +0.068 A 
ATOM     42  NE1 TRP A   7      83.468  61.365  21.034  0.00  0.00    -0.352 N 
ATOM     43  HE1 TRP A   7      82.562  61.824  21.255  0.00  0.00    +0.166 HD
ATOM     44  CE2 TRP A   7      84.636  62.012  20.720  0.00  0.00    +0.056 A 
ATOM     45  CZ2 TRP A   7      84.911  63.374  20.609  0.00  0.00    +0.017 A 
ATOM     46  CH2 TRP A   7      86.190  63.736  20.279  0.00  0.00    +0.001 A 
ATOM     47  CZ3 TRP A   7      87.185  62.776  20.041  0.00  0.00    +0.000 A 
ATOM     48  CE3 TRP A   7      86.914  61.427  20.148  0.00  0.00    +0.001 A 
ATOM     49  CD2 TRP A   7      85.616  61.025  20.489  0.00  0.00    +0.013 A 
ENDBRANCH  39  40
ENDBRANCH   6  39
ENDBRANCH   3   6
ENDBRANCH   1   2
BRANCH   1  51
ATOM     50  C   GLN A   5      81.305  59.004  18.090  0.00  0.00    +0.241 C 
ATOM     51  N   SER A   6      81.284  57.716  18.429  0.00  0.00    -0.295 N 
ATOM     52  H   SER A   6      80.664  57.412  19.207  0.00  0.00    +0.150 HD
ATOM     53  O   GLN A   5      82.053  59.456  17.220  0.00  0.00    -0.273 OA
BRANCH  50  54
ATOM     54  CA  GLN A   5      80.351  59.935  18.840  0.00  0.00    +0.149 C 
BRANCH  54  57
ATOM     55  C   LEU A   4      80.406  62.381  19.015  0.00  0.00    +0.241 C 
ATOM     56  O   LEU A   4      80.294  62.362  20.240  0.00  0.00    -0.273 OA
ATOM     57  N   GLN A   5      80.426  61.280  18.266  0.00  0.00    -0.297 N 
ATOM     58  H   GLN A   5      80.498  61.379  17.233  0.00  0.00    +0.150 HD
BRANCH  55  59
ATOM     59  CA  LEU A   4      80.548  63.708  18.267  0.00  0.00    +0.149 C 
BRANCH  59  61
ATOM     60  C   GLY A   3      78.930  65.550  18.089  0.00  0.00    +0.243 C 
ATOM     61  N   LEU A   4      79.664  64.728  18.841  0.00  0.00    -0.297 N 
ATOM     62  H   LEU A   4      79.607  64.814  19.876  0.00  0.00    +0.150 HD
ATOM     63  O   GLY A   3      79.007  65.592  16.866  0.00  0.00    -0.273 OA
BRANCH  60  64
ATOM     64  CA  GLY A   3      77.974  66.474  18.821  0.00  0.00    +0.176 C 
BRANCH  64  67
ATOM     65  C   GLY A   2      78.470  68.867  18.674  0.00  0.00    +0.243 C 
ATOM     66  O   GLY A   2      79.142  68.850  19.704  0.00  0.00    -0.273 OA
ATOM     67  N   GLY A   3      77.876  67.786  18.173  0.00  0.00    -0.295 N 
ATOM     68  H   GLY A   3      77.326  67.875  17.295  0.00  0.00    +0.150 HD
BRANCH  65  69
ATOM     69  CA  GLY A   2      78.276  70.161  17.911  0.00  0.00    +0.176 C 
BRANCH  69  72
ATOM     70  C   TYR A   1      76.756  71.298  19.429  0.00  0.00    +0.239 C 
ATOM     71  O   TYR A   1      75.859  70.474  19.215  0.00  0.00    -0.274 OA
ATOM     72  N   GLY A   2      77.944  71.233  18.837  0.00  0.00    -0.296 N 
ATOM     73  H   GLY A   2      78.653  71.966  19.040  0.00  0.00    +0.150 HD
BRANCH  70  74
ATOM     74  CA  TYR A   1      76.554  72.447  20.426  0.00  0.00    +0.149 C 
BRANCH  74  75
ATOM     75  N   TYR A   1      77.556  73.525  20.245  0.00  0.00    -0.238 NA
ATOM     76  H   TYR A   1      78.246  73.681  21.007  0.00  0.00    +0.142 HD
ENDBRANCH  74  75
BRANCH  74  77
ATOM     77  CB  TYR A   1      75.115  72.992  20.371  0.00  0.00    +0.053 C 
BRANCH  77  78
ATOM     78  CG  TYR A   1      74.166  72.382  21.396  0.00  0.00    -0.020 A 
ATOM     79  CD2 TYR A   1      74.388  72.542  22.759  0.00  0.00    -0.001 A 
ATOM     80  CE2 TYR A   1      73.514  71.995  23.712  0.00  0.00    +0.036 A 
ATOM     81  CZ  TYR A   1      72.412  71.278  23.300  0.00  0.00    +0.134 A 
ATOM     82  CE1 TYR A   1      72.160  71.117  21.946  0.00  0.00    +0.036 A 
ATOM     83  CD1 TYR A   1      73.037  71.667  21.003  0.00  0.00    -0.001 A 
BRANCH  81  84
ATOM     84  OH  TYR A   1      71.544  70.746  24.240  0.00  0.00    -0.506 OA
ATOM     85  HH  TYR A   1      71.876  70.954  25.149  0.00  0.00    +0.292 HD
ENDBRANCH  81  84
ENDBRANCH  77  78
ENDBRANCH  74  77
ENDBRANCH  70  74
ENDBRANCH  69  72
ENDBRANCH  65  69
ENDBRANCH  64  67
ENDBRANCH  60  64
ENDBRANCH  59  61
BRANCH  59  86
ATOM     86  CB  LEU A   4      82.006  64.159  18.333  0.00  0.00    +0.029 C 
BRANCH  86  87
ATOM     87  CG  LEU A   4      82.419  65.310  17.412  0.00  0.00    +0.002 C 
ATOM     88  CD2 LEU A   4      83.831  65.766  17.740  0.00  0.00    +0.000 C 
ATOM     89  CD1 LEU A   4      82.307  64.915  15.945  0.00  0.00    +0.000 C 
ENDBRANCH  86  87
ENDBRANCH  59  86
ENDBRANCH  55  59
ENDBRANCH  54  57
BRANCH  54  90
ATOM     90  CB  GLN A   5      78.912  59.413  18.783  0.00  0.00    +0.039 C 
BRANCH  90  91
ATOM     91  CG  GLN A   5      78.369  59.208  17.373  0.00  0.00    +0.087 C 
BRANCH  91  92
ATOM     92  CD  GLN A   5      77.104  58.370  17.333  0.00  0.00    +0.219 C 
ATOM     93  OE1 GLN A   5      76.402  58.223  18.334  0.00  0.00    -0.275 OA
ATOM     94  NE2 GLN A   5      76.806  57.820  16.168  0.00  0.00    -0.329 N 
ATOM     95 HE21 GLN A   5      75.950  57.237  16.072  0.00  0.00    +0.145 HD
ATOM     96 HE22 GLN A   5      77.427  57.970  15.348  0.00  0.00    +0.145 HD
ENDBRANCH  91  92
ENDBRANCH  90  91
ENDBRANCH  54  90
ENDBRANCH  50  54
ENDBRANCH   1  51
BRANCH   1  97
ATOM     97  CB  SER A   6      81.596  56.466  16.320  0.00  0.00    +0.166 C 
BRANCH  97  98
ATOM     98  OG  SER A   6      80.222  56.116  16.334  0.00  0.00    -0.380 OA
ATOM     99  H   SER A   6      79.912  55.965  15.406  0.00  0.00    +0.211 HD
ENDBRANCH  97  98
ENDBRANCH   1  97
TORSDOF 39
REMARK  Name = ../refined-set-2016/3gta/3gta_pocket.pdb
REMARK  123 active torsions:
REMARK  status: ('A' for Active; 'I' for Inactive)
REMARK    1  A    between atoms: _1  and  _3
REMARK    2  A    between atoms: _3  and  _4
REMARK    3  A    between atoms: _3  and  _6
REMARK    4  A    between atoms: _9  and  _11
REMARK    5  A    between atoms: _11  and  _12
REMARK    6  A    between atoms: _11  and  _14
REMARK    7  A    between atoms: _14  and  _15
REMARK    8  A    between atoms: _18  and  _20
REMARK    9  A    between atoms: _20  and  _21
REMARK   10  A    between atoms: _20  and  _23
REMARK   11  A    between atoms: _23  and  _24
REMARK   12  A    between atoms: _30  and  _32
REMARK   13  A    between atoms: _32  and  _33
REMARK   14  A    between atoms: _32  and  _35
REMARK   15  A    between atoms: _35  and  _36
REMARK   16  A    between atoms: _42  and  _44
REMARK   17  A    between atoms: _44  and  _45
REMARK   18  A    between atoms: _44  and  _47
REMARK   19  A    between atoms: _47  and  _48
REMARK   20  A    between atoms: _51  and  _53
REMARK   21  A    between atoms: _53  and  _54
REMARK   22  A    between atoms: _53  and  _56
REMARK   23  A    between atoms: _56  and  _57
REMARK   24  A    between atoms: _62  and  _64
REMARK   25  A    between atoms: _64  and  _65
REMARK   26  A    between atoms: _64  and  _67
REMARK   27  A    between atoms: _67  and  _68
REMARK   28  A    between atoms: _68  and  _69
REMARK   29  A    between atoms: _74  and  _76
REMARK   30  A    between atoms: _76  and  _77
REMARK   31  A    between atoms: _76  and  _79
REMARK   32  A    between atoms: _79  and  _80
REMARK   33  A    between atoms: _83  and  _85
REMARK   34  A    between atoms: _85  and  _86
REMARK   35  A    between atoms: _85  and  _88
REMARK   36  A    between atoms: _88  and  _89
REMARK   37  A    between atoms: _89  and  _90
REMARK   38  A    between atoms: _90  and  _91
REMARK   39  A    between atoms: _91  and  _92
REMARK   40  A    between atoms: _96  and  _98
REMARK   41  A    between atoms: _98  and  _99
REMARK   42  A    between atoms: _98  and  _101
REMARK   43  A    between atoms: _104  and  _106
REMARK   44  A    between atoms: _106  and  _107
REMARK   45  A    between atoms: _106  and  _109
REMARK   46  A    between atoms: _109  and  _110
REMARK   47  A    between atoms: _110  and  _111
REMARK   48  A    between atoms: _111  and  _112
REMARK   49  A    between atoms: _121  and  _123
REMARK   50  A    between atoms: _123  and  _124
REMARK   51  A    between atoms: _123  and  _126
REMARK   52  A    between atoms: _128  and  _130
REMARK   53  A    between atoms: _130  and  _131
REMARK   54  A    between atoms: _130  and  _133
REMARK   55  A    between atoms: _133  and  _134
REMARK   56  A    between atoms: _139  and  _140
REMARK   57  A    between atoms: _142  and  _144
REMARK   58  A    between atoms: _144  and  _145
REMARK   59  A    between atoms: _147  and  _149
REMARK   60  A    between atoms: _149  and  _150
REMARK   61  A    between atoms: _152  and  _154
REMARK   62  A    between atoms: _154  and  _155
REMARK   63  A    between atoms: _154  and  _157
REMARK   64  A    between atoms: _157  and  _158
REMARK   65  A    between atoms: _161  and  _163
REMARK   66  A    between atoms: _163  and  _164
REMARK   67  A    between atoms: _163  and  _166
REMARK   68  A    between atoms: _166  and  _167
REMARK   69  A    between atoms: _167  and  _168
REMARK   70  A    between atoms: _173  and  _175
REMARK   71  A    between atoms: _175  and  _176
REMARK   72  A    between atoms: _175  and  _178
REMARK   73  A    between atoms: _178  and  _179
REMARK   74  A    between atoms: _181  and  _183
REMARK   75  A    between atoms: _183  and  _184
REMARK   76  A    between atoms: _183  and  _186
REMARK   77  A    between atoms: _186  and  _187
REMARK   78  A    between atoms: _197  and  _199
REMARK   79  A    between atoms: _199  and  _200
REMARK   80  A    between atoms: _199  and  _202
REMARK   81  A    between atoms: _202  and  _203
REMARK   82  A    between atoms: _203  and  _204
REMARK   83  A    between atoms: _204  and  _205
REMARK   84  A    between atoms: _205  and  _206
REMARK   85  A    between atoms: _210  and  _212
REMARK   86  A    between atoms: _212  and  _213
REMARK   87  A    between atoms: _212  and  _215
REMARK   88  A    between atoms: _215  and  _216
REMARK   89  A    between atoms: _216  and  _217
REMARK   90  A    between atoms: _217  and  _218
REMARK   91  A    between atoms: _227  and  _229
REMARK   92  A    between atoms: _229  and  _230
REMARK   93  A    between atoms: _229  and  _232
REMARK   94  A    between atoms: _232  and  _233
REMARK   95  A    between atoms: _236  and  _238
REMARK   96  A    between atoms: _238  and  _239
REMARK   97  A    between atoms: _238  and  _241
REMARK   98  A    between atoms: _241  and  _242
REMARK   99  A    between atoms: _246  and  _247
REMARK  100  A    between atoms: _252  and  _254
REMARK  101  A    between atoms: _254  and  _255
REMARK  102  A    between atoms: _254  and  _257
REMARK  103  A    between atoms: _257  and  _258
REMARK  104  A    between atoms: _258  and  _259
REMARK  105  A    between atoms: _262  and  _264
REMARK  106  A    between atoms: _264  and  _265
REMARK  107  A    between atoms: _264  and  _267
REMARK  108  A    between atoms: _267  and  _268
REMARK  109  A    between atoms: _273  and  _275
REMARK  110  A    between atoms: _275  and  _276
REMARK  111  A    between atoms: _275  and  _278
REMARK  112  A    between atoms: _278  and  _279
REMARK  113  A    between atoms: _279  and  _280
REMARK  114  A    between atoms: _280  and  _281
REMARK  115  A    between atoms: _281  and  _282
REMARK  116  A    between atoms: _286  and  _288
REMARK  117  A    between atoms: _288  and  _289
REMARK  118  A    between atoms: _288  and  _291
REMARK  119  A    between atoms: _291  and  _292
REMARK  120  A    between atoms: _302  and  _304
REMARK  121  A    between atoms: _304  and  _305
REMARK  122  A    between atoms: _304  and  _307
REMARK  123  A    between atoms: _307  and  _308
REMARK                            x       y       z     vdW  Elec       q    Type
REMARK                         _______ _______ _______ _____ _____    ______ ____
ROOT
ATOM      1  CA  ASP A   2      92.528  63.934  19.561  0.00  0.00    +0.160 C 
ENDROOT
BRANCH   1   2
ATOM      2  C   ASP A   2      91.309  64.857  19.554  0.00  0.00    +0.244 C 
ATOM      3  N   PRO A   3      90.715  65.125  20.735  0.00  0.00    -0.273 N 
ATOM      4  CD  PRO A   3      91.046  64.589  22.071  0.00  0.00    +0.094 C 
ATOM      5  CG  PRO A   3      89.806  64.888  22.877  0.00  0.00    +0.024 C 
ATOM      6  CB  PRO A   3      89.276  66.150  22.288  0.00  0.00    +0.030 C 
ATOM      7  CA  PRO A   3      89.524  65.980  20.783  0.00  0.00    +0.140 C 
ATOM      8  O   ASP A   2      90.888  65.298  18.485  0.00  0.00    -0.273 OA
BRANCH   7   9
ATOM      9  C   PRO A   3      89.627  67.335  20.067  0.00  0.00    +0.227 C 
ATOM     10  O   PRO A   3      88.694  67.704  19.351  0.00  0.00    -0.286 OA
ENDBRANCH   7   9
ENDBRANCH   1   2
BRANCH   1  13
ATOM     11  C   ASP A   1      91.893  61.584  19.460  0.00  0.00    +0.239 C 
ATOM     12  O   ASP A   1      91.907  61.470  20.685  0.00  0.00    -0.274 OA
ATOM     13  N   ASP A   2      92.188  62.720  18.833  0.00  0.00    -0.297 N 
ATOM     14  H   ASP A   2      92.175  62.741  17.793  0.00  0.00    +0.150 HD
BRANCH  11  15
ATOM     15  CA  ASP A   1      91.511  60.402  18.582  0.00  0.00    +0.156 C 
BRANCH  15  16
ATOM     16  N   ASP A   1      92.136  59.182  19.114  0.00  0.00    -0.238 NA
ATOM     17  H   ASP A   1      91.543  58.351  19.311  0.00  0.00    +0.142 HD
ENDBRANCH  15  16
BRANCH  15  18
ATOM     18  CB  ASP A   1      89.975  60.304  18.572  0.00  0.00    +0.140 C 
BRANCH  18  19
ATOM     19  CG  ASP A   1      89.413  59.668  17.312  0.00  0.00    +0.367 C 
ATOM     20  OD2 ASP A   1      88.179  59.462  17.280  0.00  0.00    -0.246 OA
ATOM     21  OD1 ASP A   1      90.171  59.373  16.367  0.00  0.00    -0.246 OA
ENDBRANCH  18  19
ENDBRANCH  15  18
ENDBRANCH  11  15
ENDBRANCH   1  13
BRANCH   1  22
ATOM     22  CB  ASP A   2      93.714  64.625  18.896  0.00  0.00    +0.143 C 
BRANCH  22  23
ATOM     23  CG  ASP A   2      94.122  65.890  19.611  0.00  0.00    +0.367 C 
ATOM     24  OD2 ASP A   2      94.473  65.809  20.807  0.00  0.00    -0.246 OA
ATOM     25  OD1 ASP A   2      94.088  66.961  18.977  0.00  0.00    -0.246 OA
ENDBRANCH  22  23
ENDBRANCH   1  22
TORSDOF 9
REMARK  Name = ../refined-set-2016/3gta/3gta_pocket.pdb
REMARK  123 active torsions:
REMARK  status: ('A' for Active; 'I' for Inactive)
REMARK    1  A    between atoms: _1  and  _3
REMARK    2  A    between atoms: _3  and  _4
REMARK    3  A    between atoms: _3  and  _6
REMARK    4  A    between atoms: _9  and  _11
REMARK    5  A    between atoms: _11  and  _12
REMARK    6  A    between atoms: _11  and  _14
REMARK    7  A    between atoms: _14  and  _15
REMARK    8  A    between atoms: _18  and  _20
REMARK    9  A    between atoms: _20  and  _21
REMARK   10  A    between atoms: _20  and  _23
REMARK   11  A    between atoms: _23  and  _24
REMARK   12  A    between atoms: _30  and  _32
REMARK   13  A    between atoms: _32  and  _33
REMARK   14  A    between atoms: _32  and  _35
REMARK   15  A    between atoms: _35  and  _36
REMARK   16  A    between atoms: _42  and  _44
REMARK   17  A    between atoms: _44  and  _45
REMARK   18  A    between atoms: _44  and  _47
REMARK   19  A    between atoms: _47  and  _48
REMARK   20  A    between atoms: _51  and  _53
REMARK   21  A    between atoms: _53  and  _54
REMARK   22  A    between atoms: _53  and  _56
REMARK   23  A    between atoms: _56  and  _57
REMARK   24  A    between atoms: _62  and  _64
REMARK   25  A    between atoms: _64  and  _65
REMARK   26  A    between atoms: _64  and  _67
REMARK   27  A    between atoms: _67  and  _68
REMARK   28  A    between atoms: _68  and  _69
REMARK   29  A    between atoms: _74  and  _76
REMARK   30  A    between atoms: _76  and  _77
REMARK   31  A    between atoms: _76  and  _79
REMARK   32  A    between atoms: _79  and  _80
REMARK   33  A    between atoms: _83  and  _85
REMARK   34  A    between atoms: _85  and  _86
REMARK   35  A    between atoms: _85  and  _88
REMARK   36  A    between atoms: _88  and  _89
REMARK   37  A    between atoms: _89  and  _90
REMARK   38  A    between atoms: _90  and  _91
REMARK   39  A    between atoms: _91  and  _92
REMARK   40  A    between atoms: _96  and  _98
REMARK   41  A    between atoms: _98  and  _99
REMARK   42  A    between atoms: _98  and  _101
REMARK   43  A    between atoms: _104  and  _106
REMARK   44  A    between atoms: _106  and  _107
REMARK   45  A    between atoms: _106  and  _109
REMARK   46  A    between atoms: _109  and  _110
REMARK   47  A    between atoms: _110  and  _111
REMARK   48  A    between atoms: _111  and  _112
REMARK   49  A    between atoms: _121  and  _123
REMARK   50  A    between atoms: _123  and  _124
REMARK   51  A    between atoms: _123  and  _126
REMARK   52  A    between atoms: _128  and  _130
REMARK   53  A    between atoms: _130  and  _131
REMARK   54  A    between atoms: _130  and  _133
REMARK   55  A    between atoms: _133  and  _134
REMARK   56  A    between atoms: _139  and  _140
REMARK   57  A    between atoms: _142  and  _144
REMARK   58  A    between atoms: _144  and  _145
REMARK   59  A    between atoms: _147  and  _149
REMARK   60  A    between atoms: _149  and  _150
REMARK   61  A    between atoms: _152  and  _154
REMARK   62  A    between atoms: _154  and  _155
REMARK   63  A    between atoms: _154  and  _157
REMARK   64  A    between atoms: _157  and  _158
REMARK   65  A    between atoms: _161  and  _163
REMARK   66  A    between atoms: _163  and  _164
REMARK   67  A    between atoms: _163  and  _166
REMARK   68  A    between atoms: _166  and  _167
REMARK   69  A    between atoms: _167  and  _168
REMARK   70  A    between atoms: _173  and  _175
REMARK   71  A    between atoms: _175  and  _176
REMARK   72  A    between atoms: _175  and  _178
REMARK   73  A    between atoms: _178  and  _179
REMARK   74  A    between atoms: _181  and  _183
REMARK   75  A    between atoms: _183  and  _184
REMARK   76  A    between atoms: _183  and  _186
REMARK   77  A    between atoms: _186  and  _187
REMARK   78  A    between atoms: _197  and  _199
REMARK   79  A    between atoms: _199  and  _200
REMARK   80  A    between atoms: _199  and  _202
REMARK   81  A    between atoms: _202  and  _203
REMARK   82  A    between atoms: _203  and  _204
REMARK   83  A    between atoms: _204  and  _205
REMARK   84  A    between atoms: _205  and  _206
REMARK   85  A    between atoms: _210  and  _212
REMARK   86  A    between atoms: _212  and  _213
REMARK   87  A    between atoms: _212  and  _215
REMARK   88  A    between atoms: _215  and  _216
REMARK   89  A    between atoms: _216  and  _217
REMARK   90  A    between atoms: _217  and  _218
REMARK   91  A    between atoms: _227  and  _229
REMARK   92  A    between atoms: _229  and  _230
REMARK   93  A    between atoms: _229  and  _232
REMARK   94  A    between atoms: _232  and  _233
REMARK   95  A    between atoms: _236  and  _238
REMARK   96  A    between atoms: _238  and  _239
REMARK   97  A    between atoms: _238  and  _241
REMARK   98  A    between atoms: _241  and  _242
REMARK   99  A    between atoms: _246  and  _247
REMARK  100  A    between atoms: _252  and  _254
REMARK  101  A    between atoms: _254  and  _255
REMARK  102  A    between atoms: _254  and  _257
REMARK  103  A    between atoms: _257  and  _258
REMARK  104  A    between atoms: _258  and  _259
REMARK  105  A    between atoms: _262  and  _264
REMARK  106  A    between atoms: _264  and  _265
REMARK  107  A    between atoms: _264  and  _267
REMARK  108  A    between atoms: _267  and  _268
REMARK  109  A    between atoms: _273  and  _275
REMARK  110  A    between atoms: _275  and  _276
REMARK  111  A    between atoms: _275  and  _278
REMARK  112  A    between atoms: _278  and  _279
REMARK  113  A    between atoms: _279  and  _280
REMARK  114  A    between atoms: _280  and  _281
REMARK  115  A    between atoms: _281  and  _282
REMARK  116  A    between atoms: _286  and  _288
REMARK  117  A    between atoms: _288  and  _289
REMARK  118  A    between atoms: _288  and  _291
REMARK  119  A    between atoms: _291  and  _292
REMARK  120  A    between atoms: _302  and  _304
REMARK  121  A    between atoms: _304  and  _305
REMARK  122  A    between atoms: _304  and  _307
REMARK  123  A    between atoms: _307  and  _308
REMARK                            x       y       z     vdW  Elec       q    Type
REMARK                         _______ _______ _______ _____ _____    ______ ____
ROOT
ATOM      1  C   GLU A   1      87.206  67.567  15.870  0.00  0.00    +0.238 C 
ATOM      2  N   HIS A   2      87.378  68.416  16.887  0.00  0.00    -0.298 N 
ATOM      3  H   HIS A   2      88.083  68.190  17.617  0.00  0.00    +0.150 HD
ATOM      4  O   GLU A   1      86.360  67.733  14.997  0.00  0.00    -0.274 OA
ENDROOT
BRANCH   1   5
ATOM      5  CA  GLU A   1      88.132  66.350  15.811  0.00  0.00    +0.145 C 
BRANCH   5   6
ATOM      6  N   GLU A   1      89.487  66.697  16.241  0.00  0.00    -0.238 NA
ATOM      7  H   GLU A   1      89.873  66.274  17.109  0.00  0.00    +0.142 HD
ENDBRANCH   5   6
BRANCH   5   8
ATOM      8  CB  GLU A   1      87.562  65.199  16.645  0.00  0.00    +0.038 C 
BRANCH   8   9
ATOM      9  CG  GLU A   1      88.366  63.902  16.568  0.00  0.00    +0.116 C 
BRANCH   9  10
ATOM     10  CD  GLU A   1      88.463  63.337  15.165  0.00  0.00    +0.365 C 
ATOM     11  OE2 GLU A   1      89.594  63.219  14.644  0.00  0.00    -0.246 OA
ATOM     12  OE1 GLU A   1      87.413  62.996  14.583  0.00  0.00    -0.246 OA
ENDBRANCH   9  10
ENDBRANCH   8   9
ENDBRANCH   5   8
ENDBRANCH   1   5
BRANCH   2  13
ATOM     13  CA  HIS A   2      86.600  69.664  17.008  0.00  0.00    +0.143 C 
BRANCH  13  14
ATOM     14  C   HIS A   2      86.800  70.537  15.762  0.00  0.00    +0.227 C 
ATOM     15  O   HIS A   2      85.834  71.042  15.185  0.00  0.00    -0.286 OA
ENDBRANCH  13  14
BRANCH  13  16
ATOM     16  CB  HIS A   2      87.022  70.451  18.260  0.00  0.00    +0.075 C 
BRANCH  16  17
ATOM     17  CG  HIS A   2      85.946  71.332  18.835  0.00  0.00    +0.082 A 
ATOM     18  ND1 HIS A   2      85.885  71.634  20.178  0.00  0.00    -0.227 NA
ATOM     19  CE1 HIS A   2      84.842  72.414  20.407  0.00  0.00    +0.199 A 
ATOM     20  NE2 HIS A   2      84.223  72.633  19.261  0.00  0.00    -0.221 NA
ATOM     21  CD2 HIS A   2      84.892  71.963  18.262  0.00  0.00    +0.115 A 
ENDBRANCH  16  17
ENDBRANCH  13  16
ENDBRANCH   2  13
TORSDOF 9
REMARK  Name = ../refined-set-2016/3gta/3gta_pocket.pdb
REMARK  123 active torsions:
REMARK  status: ('A' for Active; 'I' for Inactive)
REMARK    1  A    between atoms: _1  and  _3
REMARK    2  A    between atoms: _3  and  _4
REMARK    3  A    between atoms: _3  and  _6
REMARK    4  A    between atoms: _9  and  _11
REMARK    5  A    between atoms: _11  and  _12
REMARK    6  A    between atoms: _11  and  _14
REMARK    7  A    between atoms: _14  and  _15
REMARK    8  A    between atoms: _18  and  _20
REMARK    9  A    between atoms: _20  and  _21
REMARK   10  A    between atoms: _20  and  _23
REMARK   11  A    between atoms: _23  and  _24
REMARK   12  A    between atoms: _30  and  _32
REMARK   13  A    between atoms: _32  and  _33
REMARK   14  A    between atoms: _32  and  _35
REMARK   15  A    between atoms: _35  and  _36
REMARK   16  A    between atoms: _42  and  _44
REMARK   17  A    between atoms: _44  and  _45
REMARK   18  A    between atoms: _44  and  _47
REMARK   19  A    between atoms: _47  and  _48
REMARK   20  A    between atoms: _51  and  _53
REMARK   21  A    between atoms: _53  and  _54
REMARK   22  A    between atoms: _53  and  _56
REMARK   23  A    between atoms: _56  and  _57
REMARK   24  A    between atoms: _62  and  _64
REMARK   25  A    between atoms: _64  and  _65
REMARK   26  A    between atoms: _64  and  _67
REMARK   27  A    between atoms: _67  and  _68
REMARK   28  A    between atoms: _68  and  _69
REMARK   29  A    between atoms: _74  and  _76
REMARK   30  A    between atoms: _76  and  _77
REMARK   31  A    between atoms: _76  and  _79
REMARK   32  A    between atoms: _79  and  _80
REMARK   33  A    between atoms: _83  and  _85
REMARK   34  A    between atoms: _85  and  _86
REMARK   35  A    between atoms: _85  and  _88
REMARK   36  A    between atoms: _88  and  _89
REMARK   37  A    between atoms: _89  and  _90
REMARK   38  A    between atoms: _90  and  _91
REMARK   39  A    between atoms: _91  and  _92
REMARK   40  A    between atoms: _96  and  _98
REMARK   41  A    between atoms: _98  and  _99
REMARK   42  A    between atoms: _98  and  _101
REMARK   43  A    between atoms: _104  and  _106
REMARK   44  A    between atoms: _106  and  _107
REMARK   45  A    between atoms: _106  and  _109
REMARK   46  A    between atoms: _109  and  _110
REMARK   47  A    between atoms: _110  and  _111
REMARK   48  A    between atoms: _111  and  _112
REMARK   49  A    between atoms: _121  and  _123
REMARK   50  A    between atoms: _123  and  _124
REMARK   51  A    between atoms: _123  and  _126
REMARK   52  A    between atoms: _128  and  _130
REMARK   53  A    between atoms: _130  and  _131
REMARK   54  A    between atoms: _130  and  _133
REMARK   55  A    between atoms: _133  and  _134
REMARK   56  A    between atoms: _139  and  _140
REMARK   57  A    between atoms: _142  and  _144
REMARK   58  A    between atoms: _144  and  _145
REMARK   59  A    between atoms: _147  and  _149
REMARK   60  A    between atoms: _149  and  _150
REMARK   61  A    between atoms: _152  and  _154
REMARK   62  A    between atoms: _154  and  _155
REMARK   63  A    between atoms: _154  and  _157
REMARK   64  A    between atoms: _157  and  _158
REMARK   65  A    between atoms: _161  and  _163
REMARK   66  A    between atoms: _163  and  _164
REMARK   67  A    between atoms: _163  and  _166
REMARK   68  A    between atoms: _166  and  _167
REMARK   69  A    between atoms: _167  and  _168
REMARK   70  A    between atoms: _173  and  _175
REMARK   71  A    between atoms: _175  and  _176
REMARK   72  A    between atoms: _175  and  _178
REMARK   73  A    between atoms: _178  and  _179
REMARK   74  A    between atoms: _181  and  _183
REMARK   75  A    between atoms: _183  and  _184
REMARK   76  A    between atoms: _183  and  _186
REMARK   77  A    between atoms: _186  and  _187
REMARK   78  A    between atoms: _197  and  _199
REMARK   79  A    between atoms: _199  and  _200
REMARK   80  A    between atoms: _199  and  _202
REMARK   81  A    between atoms: _202  and  _203
REMARK   82  A    between atoms: _203  and  _204
REMARK   83  A    between atoms: _204  and  _205
REMARK   84  A    between atoms: _205  and  _206
REMARK   85  A    between atoms: _210  and  _212
REMARK   86  A    between atoms: _212  and  _213
REMARK   87  A    between atoms: _212  and  _215
REMARK   88  A    between atoms: _215  and  _216
REMARK   89  A    between atoms: _216  and  _217
REMARK   90  A    between atoms: _217  and  _218
REMARK   91  A    between atoms: _227  and  _229
REMARK   92  A    between atoms: _229  and  _230
REMARK   93  A    between atoms: _229  and  _232
REMARK   94  A    between atoms: _232  and  _233
REMARK   95  A    between atoms: _236  and  _238
REMARK   96  A    between atoms: _238  and  _239
REMARK   97  A    between atoms: _238  and  _241
REMARK   98  A    between atoms: _241  and  _242
REMARK   99  A    between atoms: _246  and  _247
REMARK  100  A    between atoms: _252  and  _254
REMARK  101  A    between atoms: _254  and  _255
REMARK  102  A    between atoms: _254  and  _257
REMARK  103  A    between atoms: _257  and  _258
REMARK  104  A    between atoms: _258  and  _259
REMARK  105  A    between atoms: _262  and  _264
REMARK  106  A    between atoms: _264  and  _265
REMARK  107  A    between atoms: _264  and  _267
REMARK  108  A    between atoms: _267  and  _268
REMARK  109  A    between atoms: _273  and  _275
REMARK  110  A    between atoms: _275  and  _276
REMARK  111  A    between atoms: _275  and  _278
REMARK  112  A    between atoms: _278  and  _279
REMARK  113  A    between atoms: _279  and  _280
REMARK  114  A    between atoms: _280  and  _281
REMARK  115  A    between atoms: _281  and  _282
REMARK  116  A    between atoms: _286  and  _288
REMARK  117  A    between atoms: _288  and  _289
REMARK  118  A    between atoms: _288  and  _291
REMARK  119  A    between atoms: _291  and  _292
REMARK  120  A    between atoms: _302  and  _304
REMARK  121  A    between atoms: _304  and  _305
REMARK  122  A    between atoms: _304  and  _307
REMARK  123  A    between atoms: _307  and  _308
REMARK                            x       y       z     vdW  Elec       q    Type
REMARK                         _______ _______ _______ _____ _____    ______ ____
ROOT
ATOM      1  CA  TRP A   2      83.934  68.780  12.124  0.00  0.00    +0.153 C 
ENDROOT
BRANCH   1   3
ATOM      2  C   LYS A   1      86.235  68.991  11.292  0.00  0.00    +0.238 C 
ATOM      3  N   TRP A   2      85.388  68.838  12.308  0.00  0.00    -0.297 N 
ATOM      4  H   TRP A   2      85.773  68.756  13.271  0.00  0.00    +0.150 HD
ATOM      5  O   LYS A   1      85.870  69.281  10.150  0.00  0.00    -0.274 OA
BRANCH   2   6
ATOM      6  CA  LYS A   1      87.722  68.816  11.613  0.00  0.00    +0.145 C 
BRANCH   6   7
ATOM      7  N   LYS A   1      88.120  69.574  12.798  0.00  0.00    -0.238 NA
ATOM      8  H   LYS A   1      88.500  69.056  13.616  0.00  0.00    +0.142 HD
ENDBRANCH   6   7
BRANCH   6   9
ATOM      9  CB  LYS A   1      88.042  67.337  11.848  0.00  0.00    +0.026 C 
BRANCH   9  10
ATOM     10  CG  LYS A   1      87.858  66.413  10.664  0.00  0.00    -0.000 C 
BRANCH  10  11
ATOM     11  CD  LYS A   1      88.218  64.967  11.038  0.00  0.00    -0.024 C 
BRANCH  11  12
ATOM     12  CE  LYS A   1      89.715  64.790  11.337  0.00  0.00    -0.086 C 
BRANCH  12  13
ATOM     13  NZ  LYS A   1      90.078  63.397  11.764  0.00  0.00    +0.380 N 
ATOM     14  HZ1 LYS A   1      89.555  63.154  12.630  0.00  0.00    -0.089 HD
ATOM     15  HZ2 LYS A   1      91.100  63.348  11.949  0.00  0.00    -0.089 HD
ATOM     16  HZ3 LYS A   1      89.829  62.728  11.008  0.00  0.00    -0.089 HD
ENDBRANCH  12  13
ENDBRANCH  11  12
ENDBRANCH  10  11
ENDBRANCH   9  10
ENDBRANCH   6   9
ENDBRANCH   2   6
ENDBRANCH   1   3
BRANCH   1  17
ATOM     17  C   TRP A   2      83.206  70.113  12.329  0.00  0.00    +0.241 C 
ATOM     18  N   PHE A   3      83.734  70.967  13.204  0.00  0.00    -0.298 N 
ATOM     19  H   PHE A   3      84.634  70.723  13.664  0.00  0.00    +0.150 HD
ATOM     20  O   TRP A   2      82.177  70.355  11.697  0.00  0.00    -0.273 OA
BRANCH  18  21
ATOM     21  CA  PHE A   3      83.087  72.240  13.540  0.00  0.00    +0.141 C 
BRANCH  21  22
ATOM     22  C   PHE A   3      84.087  73.397  13.487  0.00  0.00    +0.227 C 
ATOM     23  O   PHE A   3      84.306  74.078  14.491  0.00  0.00    -0.286 OA
ENDBRANCH  21  22
BRANCH  21  24
ATOM     24  CB  PHE A   3      82.444  72.162  14.928  0.00  0.00    +0.054 C 
BRANCH  24  25
ATOM     25  CG  PHE A   3      81.678  70.895  15.170  0.00  0.00    -0.020 A 
ATOM     26  CD2 PHE A   3      82.115  69.975  16.112  0.00  0.00    -0.004 A 
ATOM     27  CE2 PHE A   3      81.414  68.799  16.332  0.00  0.00    -0.000 A 
ATOM     28  CZ  PHE A   3      80.269  68.531  15.611  0.00  0.00    -0.000 A 
ATOM     29  CE1 PHE A   3      79.821  69.437  14.669  0.00  0.00    -0.000 A 
ATOM     30  CD1 PHE A   3      80.527  70.614  14.449  0.00  0.00    -0.004 A 
ENDBRANCH  24  25
ENDBRANCH  21  24
ENDBRANCH  18  21
ENDBRANCH   1  17
BRANCH   1  31
ATOM     31  CB  TRP A   2      83.336  67.715  13.048  0.00  0.00    +0.057 C 
BRANCH  31  32
ATOM     32  CG  TRP A   2      83.811  66.340  12.718  0.00  0.00    -0.002 A 
ATOM     33  CD1 TRP A   2      84.693  65.584  13.431  0.00  0.00    +0.068 A 
ATOM     34  NE1 TRP A   2      84.902  64.383  12.806  0.00  0.00    -0.352 N 
ATOM     35  HE1 TRP A   2      85.528  63.626  13.147  0.00  0.00    +0.166 HD
ATOM     36  CE2 TRP A   2      84.154  64.340  11.661  0.00  0.00    +0.056 A 
ATOM     37  CZ2 TRP A   2      84.031  63.334  10.702  0.00  0.00    +0.017 A 
ATOM     38  CH2 TRP A   2      83.196  63.569   9.643  0.00  0.00    +0.001 A 
ATOM     39  CZ3 TRP A   2      82.487  64.779   9.522  0.00  0.00    +0.000 A 
ATOM     40  CE3 TRP A   2      82.608  65.777  10.476  0.00  0.00    +0.001 A 
ATOM     41  CD2 TRP A   2      83.455  65.563  11.570  0.00  0.00    +0.013 A 
ENDBRANCH  31  32
ENDBRANCH   1  31
TORSDOF 15
REMARK  Name = ../refined-set-2016/3gta/3gta_pocket.pdb
REMARK  123 active torsions:
REMARK  status: ('A' for Active; 'I' for Inactive)
REMARK    1  A    between atoms: _1  and  _3
REMARK    2  A    between atoms: _3  and  _4
REMARK    3  A    between atoms: _3  and  _6
REMARK    4  A    between atoms: _9  and  _11
REMARK    5  A    between atoms: _11  and  _12
REMARK    6  A    between atoms: _11  and  _14
REMARK    7  A    between atoms: _14  and  _15
REMARK    8  A    between atoms: _18  and  _20
REMARK    9  A    between atoms: _20  and  _21
REMARK   10  A    between atoms: _20  and  _23
REMARK   11  A    between atoms: _23  and  _24
REMARK   12  A    between atoms: _30  and  _32
REMARK   13  A    between atoms: _32  and  _33
REMARK   14  A    between atoms: _32  and  _35
REMARK   15  A    between atoms: _35  and  _36
REMARK   16  A    between atoms: _42  and  _44
REMARK   17  A    between atoms: _44  and  _45
REMARK   18  A    between atoms: _44  and  _47
REMARK   19  A    between atoms: _47  and  _48
REMARK   20  A    between atoms: _51  and  _53
REMARK   21  A    between atoms: _53  and  _54
REMARK   22  A    between atoms: _53  and  _56
REMARK   23  A    between atoms: _56  and  _57
REMARK   24  A    between atoms: _62  and  _64
REMARK   25  A    between atoms: _64  and  _65
REMARK   26  A    between atoms: _64  and  _67
REMARK   27  A    between atoms: _67  and  _68
REMARK   28  A    between atoms: _68  and  _69
REMARK   29  A    between atoms: _74  and  _76
REMARK   30  A    between atoms: _76  and  _77
REMARK   31  A    between atoms: _76  and  _79
REMARK   32  A    between atoms: _79  and  _80
REMARK   33  A    between atoms: _83  and  _85
REMARK   34  A    between atoms: _85  and  _86
REMARK   35  A    between atoms: _85  and  _88
REMARK   36  A    between atoms: _88  and  _89
REMARK   37  A    between atoms: _89  and  _90
REMARK   38  A    between atoms: _90  and  _91
REMARK   39  A    between atoms: _91  and  _92
REMARK   40  A    between atoms: _96  and  _98
REMARK   41  A    between atoms: _98  and  _99
REMARK   42  A    between atoms: _98  and  _101
REMARK   43  A    between atoms: _104  and  _106
REMARK   44  A    between atoms: _106  and  _107
REMARK   45  A    between atoms: _106  and  _109
REMARK   46  A    between atoms: _109  and  _110
REMARK   47  A    between atoms: _110  and  _111
REMARK   48  A    between atoms: _111  and  _112
REMARK   49  A    between atoms: _121  and  _123
REMARK   50  A    between atoms: _123  and  _124
REMARK   51  A    between atoms: _123  and  _126
REMARK   52  A    between atoms: _128  and  _130
REMARK   53  A    between atoms: _130  and  _131
REMARK   54  A    between atoms: _130  and  _133
REMARK   55  A    between atoms: _133  and  _134
REMARK   56  A    between atoms: _139  and  _140
REMARK   57  A    between atoms: _142  and  _144
REMARK   58  A    between atoms: _144  and  _145
REMARK   59  A    between atoms: _147  and  _149
REMARK   60  A    between atoms: _149  and  _150
REMARK   61  A    between atoms: _152  and  _154
REMARK   62  A    between atoms: _154  and  _155
REMARK   63  A    between atoms: _154  and  _157
REMARK   64  A    between atoms: _157  and  _158
REMARK   65  A    between atoms: _161  and  _163
REMARK   66  A    between atoms: _163  and  _164
REMARK   67  A    between atoms: _163  and  _166
REMARK   68  A    between atoms: _166  and  _167
REMARK   69  A    between atoms: _167  and  _168
REMARK   70  A    between atoms: _173  and  _175
REMARK   71  A    between atoms: _175  and  _176
REMARK   72  A    between atoms: _175  and  _178
REMARK   73  A    between atoms: _178  and  _179
REMARK   74  A    between atoms: _181  and  _183
REMARK   75  A    between atoms: _183  and  _184
REMARK   76  A    between atoms: _183  and  _186
REMARK   77  A    between atoms: _186  and  _187
REMARK   78  A    between atoms: _197  and  _199
REMARK   79  A    between atoms: _199  and  _200
REMARK   80  A    between atoms: _199  and  _202
REMARK   81  A    between atoms: _202  and  _203
REMARK   82  A    between atoms: _203  and  _204
REMARK   83  A    between atoms: _204  and  _205
REMARK   84  A    between atoms: _205  and  _206
REMARK   85  A    between atoms: _210  and  _212
REMARK   86  A    between atoms: _212  and  _213
REMARK   87  A    between atoms: _212  and  _215
REMARK   88  A    between atoms: _215  and  _216
REMARK   89  A    between atoms: _216  and  _217
REMARK   90  A    between atoms: _217  and  _218
REMARK   91  A    between atoms: _227  and  _229
REMARK   92  A    between atoms: _229  and  _230
REMARK   93  A    between atoms: _229  and  _232
REMARK   94  A    between atoms: _232  and  _233
REMARK   95  A    between atoms: _236  and  _238
REMARK   96  A    between atoms: _238  and  _239
REMARK   97  A    between atoms: _238  and  _241
REMARK   98  A    between atoms: _241  and  _242
REMARK   99  A    between atoms: _246  and  _247
REMARK  100  A    between atoms: _252  and  _254
REMARK  101  A    between atoms: _254  and  _255
REMARK  102  A    between atoms: _254  and  _257
REMARK  103  A    between atoms: _257  and  _258
REMARK  104  A    between atoms: _258  and  _259
REMARK  105  A    between atoms: _262  and  _264
REMARK  106  A    between atoms: _264  and  _265
REMARK  107  A    between atoms: _264  and  _267
REMARK  108  A    between atoms: _267  and  _268
REMARK  109  A    between atoms: _273  and  _275
REMARK  110  A    between atoms: _275  and  _276
REMARK  111  A    between atoms: _275  and  _278
REMARK  112  A    between atoms: _278  and  _279
REMARK  113  A    between atoms: _279  and  _280
REMARK  114  A    between atoms: _280  and  _281
REMARK  115  A    between atoms: _281  and  _282
REMARK  116  A    between atoms: _286  and  _288
REMARK  117  A    between atoms: _288  and  _289
REMARK  118  A    between atoms: _288  and  _291
REMARK  119  A    between atoms: _291  and  _292
REMARK  120  A    between atoms: _302  and  _304
REMARK  121  A    between atoms: _304  and  _305
REMARK  122  A    between atoms: _304  and  _307
REMARK  123  A    between atoms: _307  and  _308
REMARK                            x       y       z     vdW  Elec       q    Type
REMARK                         _______ _______ _______ _____ _____    ______ ____
ROOT
ATOM      1  O   HOH     1      78.721  55.167  19.874  0.00  0.00    +0.000 OA
ENDROOT
TORSDOF 0
REMARK  Name = ../refined-set-2016/3gta/3gta_pocket.pdb
REMARK  123 active torsions:
REMARK  status: ('A' for Active; 'I' for Inactive)
REMARK    1  A    between atoms: _1  and  _3
REMARK    2  A    between atoms: _3  and  _4
REMARK    3  A    between atoms: _3  and  _6
REMARK    4  A    between atoms: _9  and  _11
REMARK    5  A    between atoms: _11  and  _12
REMARK    6  A    between atoms: _11  and  _14
REMARK    7  A    between atoms: _14  and  _15
REMARK    8  A    between atoms: _18  and  _20
REMARK    9  A    between atoms: _20  and  _21
REMARK   10  A    between atoms: _20  and  _23
REMARK   11  A    between atoms: _23  and  _24
REMARK   12  A    between atoms: _30  and  _32
REMARK   13  A    between atoms: _32  and  _33
REMARK   14  A    between atoms: _32  and  _35
REMARK   15  A    between atoms: _35  and  _36
REMARK   16  A    between atoms: _42  and  _44
REMARK   17  A    between atoms: _44  and  _45
REMARK   18  A    between atoms: _44  and  _47
REMARK   19  A    between atoms: _47  and  _48
REMARK   20  A    between atoms: _51  and  _53
REMARK   21  A    between atoms: _53  and  _54
REMARK   22  A    between atoms: _53  and  _56
REMARK   23  A    between atoms: _56  and  _57
REMARK   24  A    between atoms: _62  and  _64
REMARK   25  A    between atoms: _64  and  _65
REMARK   26  A    between atoms: _64  and  _67
REMARK   27  A    between atoms: _67  and  _68
REMARK   28  A    between atoms: _68  and  _69
REMARK   29  A    between atoms: _74  and  _76
REMARK   30  A    between atoms: _76  and  _77
REMARK   31  A    between atoms: _76  and  _79
REMARK   32  A    between atoms: _79  and  _80
REMARK   33  A    between atoms: _83  and  _85
REMARK   34  A    between atoms: _85  and  _86
REMARK   35  A    between atoms: _85  and  _88
REMARK   36  A    between atoms: _88  and  _89
REMARK   37  A    between atoms: _89  and  _90
REMARK   38  A    between atoms: _90  and  _91
REMARK   39  A    between atoms: _91  and  _92
REMARK   40  A    between atoms: _96  and  _98
REMARK   41  A    between atoms: _98  and  _99
REMARK   42  A    between atoms: _98  and  _101
REMARK   43  A    between atoms: _104  and  _106
REMARK   44  A    between atoms: _106  and  _107
REMARK   45  A    between atoms: _106  and  _109
REMARK   46  A    between atoms: _109  and  _110
REMARK   47  A    between atoms: _110  and  _111
REMARK   48  A    between atoms: _111  and  _112
REMARK   49  A    between atoms: _121  and  _123
REMARK   50  A    between atoms: _123  and  _124
REMARK   51  A    between atoms: _123  and  _126
REMARK   52  A    between atoms: _128  and  _130
REMARK   53  A    between atoms: _130  and  _131
REMARK   54  A    between atoms: _130  and  _133
REMARK   55  A    between atoms: _133  and  _134
REMARK   56  A    between atoms: _139  and  _140
REMARK   57  A    between atoms: _142  and  _144
REMARK   58  A    between atoms: _144  and  _145
REMARK   59  A    between atoms: _147  and  _149
REMARK   60  A    between atoms: _149  and  _150
REMARK   61  A    between atoms: _152  and  _154
REMARK   62  A    between atoms: _154  and  _155
REMARK   63  A    between atoms: _154  and  _157
REMARK   64  A    between atoms: _157  and  _158
REMARK   65  A    between atoms: _161  and  _163
REMARK   66  A    between atoms: _163  and  _164
REMARK   67  A    between atoms: _163  and  _166
REMARK   68  A    between atoms: _166  and  _167
REMARK   69  A    between atoms: _167  and  _168
REMARK   70  A    between atoms: _173  and  _175
REMARK   71  A    between atoms: _175  and  _176
REMARK   72  A    between atoms: _175  and  _178
REMARK   73  A    between atoms: _178  and  _179
REMARK   74  A    between atoms: _181  and  _183
REMARK   75  A    between atoms: _183  and  _184
REMARK   76  A    between atoms: _183  and  _186
REMARK   77  A    between atoms: _186  and  _187
REMARK   78  A    between atoms: _197  and  _199
REMARK   79  A    between atoms: _199  and  _200
REMARK   80  A    between atoms: _199  and  _202
REMARK   81  A    between atoms: _202  and  _203
REMARK   82  A    between atoms: _203  and  _204
REMARK   83  A    between atoms: _204  and  _205
REMARK   84  A    between atoms: _205  and  _206
REMARK   85  A    between atoms: _210  and  _212
REMARK   86  A    between atoms: _212  and  _213
REMARK   87  A    between atoms: _212  and  _215
REMARK   88  A    between atoms: _215  and  _216
REMARK   89  A    between atoms: _216  and  _217
REMARK   90  A    between atoms: _217  and  _218
REMARK   91  A    between atoms: _227  and  _229
REMARK   92  A    between atoms: _229  and  _230
REMARK   93  A    between atoms: _229  and  _232
REMARK   94  A    between atoms: _232  and  _233
REMARK   95  A    between atoms: _236  and  _238
REMARK   96  A    between atoms: _238  and  _239
REMARK   97  A    between atoms: _238  and  _241
REMARK   98  A    between atoms: _241  and  _242
REMARK   99  A    between atoms: _246  and  _247
REMARK  100  A    between atoms: _252  and  _254
REMARK  101  A    between atoms: _254  and  _255
REMARK  102  A    between atoms: _254  and  _257
REMARK  103  A    between atoms: _257  and  _258
REMARK  104  A    between atoms: _258  and  _259
REMARK  105  A    between atoms: _262  and  _264
REMARK  106  A    between atoms: _264  and  _265
REMARK  107  A    between atoms: _264  and  _267
REMARK  108  A    between atoms: _267  and  _268
REMARK  109  A    between atoms: _273  and  _275
REMARK  110  A    between atoms: _275  and  _276
REMARK  111  A    between atoms: _275  and  _278
REMARK  112  A    between atoms: _278  and  _279
REMARK  113  A    between atoms: _279  and  _280
REMARK  114  A    between atoms: _280  and  _281
REMARK  115  A    between atoms: _281  and  _282
REMARK  116  A    between atoms: _286  and  _288
REMARK  117  A    between atoms: _288  and  _289
REMARK  118  A    between atoms: _288  and  _291
REMARK  119  A    between atoms: _291  and  _292
REMARK  120  A    between atoms: _302  and  _304
REMARK  121  A    between atoms: _304  and  _305
REMARK  122  A    between atoms: _304  and  _307
REMARK  123  A    between atoms: _307  and  _308
REMARK                            x       y       z     vdW  Elec       q    Type
REMARK                         _______ _______ _______ _____ _____    ______ ____
ROOT
ATOM      1  O   HOH     1      86.088  59.798  10.895  0.00  0.00    +0.000 OA
ENDROOT
TORSDOF 0
REMARK  Name = ../refined-set-2016/3gta/3gta_pocket.pdb
REMARK  123 active torsions:
REMARK  status: ('A' for Active; 'I' for Inactive)
REMARK    1  A    between atoms: _1  and  _3
REMARK    2  A    between atoms: _3  and  _4
REMARK    3  A    between atoms: _3  and  _6
REMARK    4  A    between atoms: _9  and  _11
REMARK    5  A    between atoms: _11  and  _12
REMARK    6  A    between atoms: _11  and  _14
REMARK    7  A    between atoms: _14  and  _15
REMARK    8  A    between atoms: _18  and  _20
REMARK    9  A    between atoms: _20  and  _21
REMARK   10  A    between atoms: _20  and  _23
REMARK   11  A    between atoms: _23  and  _24
REMARK   12  A    between atoms: _30  and  _32
REMARK   13  A    between atoms: _32  and  _33
REMARK   14  A    between atoms: _32  and  _35
REMARK   15  A    between atoms: _35  and  _36
REMARK   16  A    between atoms: _42  and  _44
REMARK   17  A    between atoms: _44  and  _45
REMARK   18  A    between atoms: _44  and  _47
REMARK   19  A    between atoms: _47  and  _48
REMARK   20  A    between atoms: _51  and  _53
REMARK   21  A    between atoms: _53  and  _54
REMARK   22  A    between atoms: _53  and  _56
REMARK   23  A    between atoms: _56  and  _57
REMARK   24  A    between atoms: _62  and  _64
REMARK   25  A    between atoms: _64  and  _65
REMARK   26  A    between atoms: _64  and  _67
REMARK   27  A    between atoms: _67  and  _68
REMARK   28  A    between atoms: _68  and  _69
REMARK   29  A    between atoms: _74  and  _76
REMARK   30  A    between atoms: _76  and  _77
REMARK   31  A    between atoms: _76  and  _79
REMARK   32  A    between atoms: _79  and  _80
REMARK   33  A    between atoms: _83  and  _85
REMARK   34  A    between atoms: _85  and  _86
REMARK   35  A    between atoms: _85  and  _88
REMARK   36  A    between atoms: _88  and  _89
REMARK   37  A    between atoms: _89  and  _90
REMARK   38  A    between atoms: _90  and  _91
REMARK   39  A    between atoms: _91  and  _92
REMARK   40  A    between atoms: _96  and  _98
REMARK   41  A    between atoms: _98  and  _99
REMARK   42  A    between atoms: _98  and  _101
REMARK   43  A    between atoms: _104  and  _106
REMARK   44  A    between atoms: _106  and  _107
REMARK   45  A    between atoms: _106  and  _109
REMARK   46  A    between atoms: _109  and  _110
REMARK   47  A    between atoms: _110  and  _111
REMARK   48  A    between atoms: _111  and  _112
REMARK   49  A    between atoms: _121  and  _123
REMARK   50  A    between atoms: _123  and  _124
REMARK   51  A    between atoms: _123  and  _126
REMARK   52  A    between atoms: _128  and  _130
REMARK   53  A    between atoms: _130  and  _131
REMARK   54  A    between atoms: _130  and  _133
REMARK   55  A    between atoms: _133  and  _134
REMARK   56  A    between atoms: _139  and  _140
REMARK   57  A    between atoms: _142  and  _144
REMARK   58  A    between atoms: _144  and  _145
REMARK   59  A    between atoms: _147  and  _149
REMARK   60  A    between atoms: _149  and  _150
REMARK   61  A    between atoms: _152  and  _154
REMARK   62  A    between atoms: _154  and  _155
REMARK   63  A    between atoms: _154  and  _157
REMARK   64  A    between atoms: _157  and  _158
REMARK   65  A    between atoms: _161  and  _163
REMARK   66  A    between atoms: _163  and  _164
REMARK   67  A    between atoms: _163  and  _166
REMARK   68  A    between atoms: _166  and  _167
REMARK   69  A    between atoms: _167  and  _168
REMARK   70  A    between atoms: _173  and  _175
REMARK   71  A    between atoms: _175  and  _176
REMARK   72  A    between atoms: _175  and  _178
REMARK   73  A    between atoms: _178  and  _179
REMARK   74  A    between atoms: _181  and  _183
REMARK   75  A    between atoms: _183  and  _184
REMARK   76  A    between atoms: _183  and  _186
REMARK   77  A    between atoms: _186  and  _187
REMARK   78  A    between atoms: _197  and  _199
REMARK   79  A    between atoms: _199  and  _200
REMARK   80  A    between atoms: _199  and  _202
REMARK   81  A    between atoms: _202  and  _203
REMARK   82  A    between atoms: _203  and  _204
REMARK   83  A    between atoms: _204  and  _205
REMARK   84  A    between atoms: _205  and  _206
REMARK   85  A    between atoms: _210  and  _212
REMARK   86  A    between atoms: _212  and  _213
REMARK   87  A    between atoms: _212  and  _215
REMARK   88  A    between atoms: _215  and  _216
REMARK   89  A    between atoms: _216  and  _217
REMARK   90  A    between atoms: _217  and  _218
REMARK   91  A    between atoms: _227  and  _229
REMARK   92  A    between atoms: _229  and  _230
REMARK   93  A    between atoms: _229  and  _232
REMARK   94  A    between atoms: _232  and  _233
REMARK   95  A    between atoms: _236  and  _238
REMARK   96  A    between atoms: _238  and  _239
REMARK   97  A    between atoms: _238  and  _241
REMARK   98  A    between atoms: _241  and  _242
REMARK   99  A    between atoms: _246  and  _247
REMARK  100  A    between atoms: _252  and  _254
REMARK  101  A    between atoms: _254  and  _255
REMARK  102  A    between atoms: _254  and  _257
REMARK  103  A    between atoms: _257  and  _258
REMARK  104  A    between atoms: _258  and  _259
REMARK  105  A    between atoms: _262  and  _264
REMARK  106  A    between atoms: _264  and  _265
REMARK  107  A    between atoms: _264  and  _267
REMARK  108  A    between atoms: _267  and  _268
REMARK  109  A    between atoms: _273  and  _275
REMARK  110  A    between atoms: _275  and  _276
REMARK  111  A    between atoms: _275  and  _278
REMARK  112  A    between atoms: _278  and  _279
REMARK  113  A    between atoms: _279  and  _280
REMARK  114  A    between atoms: _280  and  _281
REMARK  115  A    between atoms: _281  and  _282
REMARK  116  A    between atoms: _286  and  _288
REMARK  117  A    between atoms: _288  and  _289
REMARK  118  A    between atoms: _288  and  _291
REMARK  119  A    between atoms: _291  and  _292
REMARK  120  A    between atoms: _302  and  _304
REMARK  121  A    between atoms: _304  and  _305
REMARK  122  A    between atoms: _304  and  _307
REMARK  123  A    between atoms: _307  and  _308
REMARK                            x       y       z     vdW  Elec       q    Type
REMARK                         _______ _______ _______ _____ _____    ______ ____
ROOT
ATOM      1  O   HOH     1      85.547  57.216  11.796  0.00  0.00    +0.000 OA
ENDROOT
TORSDOF 0
REMARK  Name = ../refined-set-2016/3gta/3gta_pocket.pdb
REMARK  123 active torsions:
REMARK  status: ('A' for Active; 'I' for Inactive)
REMARK    1  A    between atoms: _1  and  _3
REMARK    2  A    between atoms: _3  and  _4
REMARK    3  A    between atoms: _3  and  _6
REMARK    4  A    between atoms: _9  and  _11
REMARK    5  A    between atoms: _11  and  _12
REMARK    6  A    between atoms: _11  and  _14
REMARK    7  A    between atoms: _14  and  _15
REMARK    8  A    between atoms: _18  and  _20
REMARK    9  A    between atoms: _20  and  _21
REMARK   10  A    between atoms: _20  and  _23
REMARK   11  A    between atoms: _23  and  _24
REMARK   12  A    between atoms: _30  and  _32
REMARK   13  A    between atoms: _32  and  _33
REMARK   14  A    between atoms: _32  and  _35
REMARK   15  A    between atoms: _35  and  _36
REMARK   16  A    between atoms: _42  and  _44
REMARK   17  A    between atoms: _44  and  _45
REMARK   18  A    between atoms: _44  and  _47
REMARK   19  A    between atoms: _47  and  _48
REMARK   20  A    between atoms: _51  and  _53
REMARK   21  A    between atoms: _53  and  _54
REMARK   22  A    between atoms: _53  and  _56
REMARK   23  A    between atoms: _56  and  _57
REMARK   24  A    between atoms: _62  and  _64
REMARK   25  A    between atoms: _64  and  _65
REMARK   26  A    between atoms: _64  and  _67
REMARK   27  A    between atoms: _67  and  _68
REMARK   28  A    between atoms: _68  and  _69
REMARK   29  A    between atoms: _74  and  _76
REMARK   30  A    between atoms: _76  and  _77
REMARK   31  A    between atoms: _76  and  _79
REMARK   32  A    between atoms: _79  and  _80
REMARK   33  A    between atoms: _83  and  _85
REMARK   34  A    between atoms: _85  and  _86
REMARK   35  A    between atoms: _85  and  _88
REMARK   36  A    between atoms: _88  and  _89
REMARK   37  A    between atoms: _89  and  _90
REMARK   38  A    between atoms: _90  and  _91
REMARK   39  A    between atoms: _91  and  _92
REMARK   40  A    between atoms: _96  and  _98
REMARK   41  A    between atoms: _98  and  _99
REMARK   42  A    between atoms: _98  and  _101
REMARK   43  A    between atoms: _104  and  _106
REMARK   44  A    between atoms: _106  and  _107
REMARK   45  A    between atoms: _106  and  _109
REMARK   46  A    between atoms: _109  and  _110
REMARK   47  A    between atoms: _110  and  _111
REMARK   48  A    between atoms: _111  and  _112
REMARK   49  A    between atoms: _121  and  _123
REMARK   50  A    between atoms: _123  and  _124
REMARK   51  A    between atoms: _123  and  _126
REMARK   52  A    between atoms: _128  and  _130
REMARK   53  A    between atoms: _130  and  _131
REMARK   54  A    between atoms: _130  and  _133
REMARK   55  A    between atoms: _133  and  _134
REMARK   56  A    between atoms: _139  and  _140
REMARK   57  A    between atoms: _142  and  _144
REMARK   58  A    between atoms: _144  and  _145
REMARK   59  A    between atoms: _147  and  _149
REMARK   60  A    between atoms: _149  and  _150
REMARK   61  A    between atoms: _152  and  _154
REMARK   62  A    between atoms: _154  and  _155
REMARK   63  A    between atoms: _154  and  _157
REMARK   64  A    between atoms: _157  and  _158
REMARK   65  A    between atoms: _161  and  _163
REMARK   66  A    between atoms: _163  and  _164
REMARK   67  A    between atoms: _163  and  _166
REMARK   68  A    between atoms: _166  and  _167
REMARK   69  A    between atoms: _167  and  _168
REMARK   70  A    between atoms: _173  and  _175
REMARK   71  A    between atoms: _175  and  _176
REMARK   72  A    between atoms: _175  and  _178
REMARK   73  A    between atoms: _178  and  _179
REMARK   74  A    between atoms: _181  and  _183
REMARK   75  A    between atoms: _183  and  _184
REMARK   76  A    between atoms: _183  and  _186
REMARK   77  A    between atoms: _186  and  _187
REMARK   78  A    between atoms: _197  and  _199
REMARK   79  A    between atoms: _199  and  _200
REMARK   80  A    between atoms: _199  and  _202
REMARK   81  A    between atoms: _202  and  _203
REMARK   82  A    between atoms: _203  and  _204
REMARK   83  A    between atoms: _204  and  _205
REMARK   84  A    between atoms: _205  and  _206
REMARK   85  A    between atoms: _210  and  _212
REMARK   86  A    between atoms: _212  and  _213
REMARK   87  A    between atoms: _212  and  _215
REMARK   88  A    between atoms: _215  and  _216
REMARK   89  A    between atoms: _216  and  _217
REMARK   90  A    between atoms: _217  and  _218
REMARK   91  A    between atoms: _227  and  _229
REMARK   92  A    between atoms: _229  and  _230
REMARK   93  A    between atoms: _229  and  _232
REMARK   94  A    between atoms: _232  and  _233
REMARK   95  A    between atoms: _236  and  _238
REMARK   96  A    between atoms: _238  and  _239
REMARK   97  A    between atoms: _238  and  _241
REMARK   98  A    between atoms: _241  and  _242
REMARK   99  A    between atoms: _246  and  _247
REMARK  100  A    between atoms: _252  and  _254
REMARK  101  A    between atoms: _254  and  _255
REMARK  102  A    between atoms: _254  and  _257
REMARK  103  A    between atoms: _257  and  _258
REMARK  104  A    between atoms: _258  and  _259
REMARK  105  A    between atoms: _262  and  _264
REMARK  106  A    between atoms: _264  and  _265
REMARK  107  A    between atoms: _264  and  _267
REMARK  108  A    between atoms: _267  and  _268
REMARK  109  A    between atoms: _273  and  _275
REMARK  110  A    between atoms: _275  and  _276
REMARK  111  A    between atoms: _275  and  _278
REMARK  112  A    between atoms: _278  and  _279
REMARK  113  A    between atoms: _279  and  _280
REMARK  114  A    between atoms: _280  and  _281
REMARK  115  A    between atoms: _281  and  _282
REMARK  116  A    between atoms: _286  and  _288
REMARK  117  A    between atoms: _288  and  _289
REMARK  118  A    between atoms: _288  and  _291
REMARK  119  A    between atoms: _291  and  _292
REMARK  120  A    between atoms: _302  and  _304
REMARK  121  A    between atoms: _304  and  _305
REMARK  122  A    between atoms: _304  and  _307
REMARK  123  A    between atoms: _307  and  _308
REMARK                            x       y       z     vdW  Elec       q    Type
REMARK                         _______ _______ _______ _____ _____    ______ ____
ROOT
ATOM      1  O   HOH     1      79.873  68.645  10.971  0.00  0.00    +0.000 OA
ENDROOT
TORSDOF 0
REMARK  Name = ../refined-set-2016/3gta/3gta_pocket.pdb
REMARK  123 active torsions:
REMARK  status: ('A' for Active; 'I' for Inactive)
REMARK    1  A    between atoms: _1  and  _3
REMARK    2  A    between atoms: _3  and  _4
REMARK    3  A    between atoms: _3  and  _6
REMARK    4  A    between atoms: _9  and  _11
REMARK    5  A    between atoms: _11  and  _12
REMARK    6  A    between atoms: _11  and  _14
REMARK    7  A    between atoms: _14  and  _15
REMARK    8  A    between atoms: _18  and  _20
REMARK    9  A    between atoms: _20  and  _21
REMARK   10  A    between atoms: _20  and  _23
REMARK   11  A    between atoms: _23  and  _24
REMARK   12  A    between atoms: _30  and  _32
REMARK   13  A    between atoms: _32  and  _33
REMARK   14  A    between atoms: _32  and  _35
REMARK   15  A    between atoms: _35  and  _36
REMARK   16  A    between atoms: _42  and  _44
REMARK   17  A    between atoms: _44  and  _45
REMARK   18  A    between atoms: _44  and  _47
REMARK   19  A    between atoms: _47  and  _48
REMARK   20  A    between atoms: _51  and  _53
REMARK   21  A    between atoms: _53  and  _54
REMARK   22  A    between atoms: _53  and  _56
REMARK   23  A    between atoms: _56  and  _57
REMARK   24  A    between atoms: _62  and  _64
REMARK   25  A    between atoms: _64  and  _65
REMARK   26  A    between atoms: _64  and  _67
REMARK   27  A    between atoms: _67  and  _68
REMARK   28  A    between atoms: _68  and  _69
REMARK   29  A    between atoms: _74  and  _76
REMARK   30  A    between atoms: _76  and  _77
REMARK   31  A    between atoms: _76  and  _79
REMARK   32  A    between atoms: _79  and  _80
REMARK   33  A    between atoms: _83  and  _85
REMARK   34  A    between atoms: _85  and  _86
REMARK   35  A    between atoms: _85  and  _88
REMARK   36  A    between atoms: _88  and  _89
REMARK   37  A    between atoms: _89  and  _90
REMARK   38  A    between atoms: _90  and  _91
REMARK   39  A    between atoms: _91  and  _92
REMARK   40  A    between atoms: _96  and  _98
REMARK   41  A    between atoms: _98  and  _99
REMARK   42  A    between atoms: _98  and  _101
REMARK   43  A    between atoms: _104  and  _106
REMARK   44  A    between atoms: _106  and  _107
REMARK   45  A    between atoms: _106  and  _109
REMARK   46  A    between atoms: _109  and  _110
REMARK   47  A    between atoms: _110  and  _111
REMARK   48  A    between atoms: _111  and  _112
REMARK   49  A    between atoms: _121  and  _123
REMARK   50  A    between atoms: _123  and  _124
REMARK   51  A    between atoms: _123  and  _126
REMARK   52  A    between atoms: _128  and  _130
REMARK   53  A    between atoms: _130  and  _131
REMARK   54  A    between atoms: _130  and  _133
REMARK   55  A    between atoms: _133  and  _134
REMARK   56  A    between atoms: _139  and  _140
REMARK   57  A    between atoms: _142  and  _144
REMARK   58  A    between atoms: _144  and  _145
REMARK   59  A    between atoms: _147  and  _149
REMARK   60  A    between atoms: _149  and  _150
REMARK   61  A    between atoms: _152  and  _154
REMARK   62  A    between atoms: _154  and  _155
REMARK   63  A    between atoms: _154  and  _157
REMARK   64  A    between atoms: _157  and  _158
REMARK   65  A    between atoms: _161  and  _163
REMARK   66  A    between atoms: _163  and  _164
REMARK   67  A    between atoms: _163  and  _166
REMARK   68  A    between atoms: _166  and  _167
REMARK   69  A    between atoms: _167  and  _168
REMARK   70  A    between atoms: _173  and  _175
REMARK   71  A    between atoms: _175  and  _176
REMARK   72  A    between atoms: _175  and  _178
REMARK   73  A    between atoms: _178  and  _179
REMARK   74  A    between atoms: _181  and  _183
REMARK   75  A    between atoms: _183  and  _184
REMARK   76  A    between atoms: _183  and  _186
REMARK   77  A    between atoms: _186  and  _187
REMARK   78  A    between atoms: _197  and  _199
REMARK   79  A    between atoms: _199  and  _200
REMARK   80  A    between atoms: _199  and  _202
REMARK   81  A    between atoms: _202  and  _203
REMARK   82  A    between atoms: _203  and  _204
REMARK   83  A    between atoms: _204  and  _205
REMARK   84  A    between atoms: _205  and  _206
REMARK   85  A    between atoms: _210  and  _212
REMARK   86  A    between atoms: _212  and  _213
REMARK   87  A    between atoms: _212  and  _215
REMARK   88  A    between atoms: _215  and  _216
REMARK   89  A    between atoms: _216  and  _217
REMARK   90  A    between atoms: _217  and  _218
REMARK   91  A    between atoms: _227  and  _229
REMARK   92  A    between atoms: _229  and  _230
REMARK   93  A    between atoms: _229  and  _232
REMARK   94  A    between atoms: _232  and  _233
REMARK   95  A    between atoms: _236  and  _238
REMARK   96  A    between atoms: _238  and  _239
REMARK   97  A    between atoms: _238  and  _241
REMARK   98  A    between atoms: _241  and  _242
REMARK   99  A    between atoms: _246  and  _247
REMARK  100  A    between atoms: _252  and  _254
REMARK  101  A    between atoms: _254  and  _255
REMARK  102  A    between atoms: _254  and  _257
REMARK  103  A    between atoms: _257  and  _258
REMARK  104  A    between atoms: _258  and  _259
REMARK  105  A    between atoms: _262  and  _264
REMARK  106  A    between atoms: _264  and  _265
REMARK  107  A    between atoms: _264  and  _267
REMARK  108  A    between atoms: _267  and  _268
REMARK  109  A    between atoms: _273  and  _275
REMARK  110  A    between atoms: _275  and  _276
REMARK  111  A    between atoms: _275  and  _278
REMARK  112  A    between atoms: _278  and  _279
REMARK  113  A    between atoms: _279  and  _280
REMARK  114  A    between atoms: _280  and  _281
REMARK  115  A    between atoms: _281  and  _282
REMARK  116  A    between atoms: _286  and  _288
REMARK  117  A    between atoms: _288  and  _289
REMARK  118  A    between atoms: _288  and  _291
REMARK  119  A    between atoms: _291  and  _292
REMARK  120  A    between atoms: _302  and  _304
REMARK  121  A    between atoms: _304  and  _305
REMARK  122  A    between atoms: _304  and  _307
REMARK  123  A    between atoms: _307  and  _308
REMARK                            x       y       z     vdW  Elec       q    Type
REMARK                         _______ _______ _______ _____ _____    ______ ____
ROOT
ATOM      1  O   HOH     1      73.105  57.192  17.863  0.00  0.00    +0.000 OA
ENDROOT
TORSDOF 0
REMARK  Name = ../refined-set-2016/3gta/3gta_pocket.pdb
REMARK  123 active torsions:
REMARK  status: ('A' for Active; 'I' for Inactive)
REMARK    1  A    between atoms: _1  and  _3
REMARK    2  A    between atoms: _3  and  _4
REMARK    3  A    between atoms: _3  and  _6
REMARK    4  A    between atoms: _9  and  _11
REMARK    5  A    between atoms: _11  and  _12
REMARK    6  A    between atoms: _11  and  _14
REMARK    7  A    between atoms: _14  and  _15
REMARK    8  A    between atoms: _18  and  _20
REMARK    9  A    between atoms: _20  and  _21
REMARK   10  A    between atoms: _20  and  _23
REMARK   11  A    between atoms: _23  and  _24
REMARK   12  A    between atoms: _30  and  _32
REMARK   13  A    between atoms: _32  and  _33
REMARK   14  A    between atoms: _32  and  _35
REMARK   15  A    between atoms: _35  and  _36
REMARK   16  A    between atoms: _42  and  _44
REMARK   17  A    between atoms: _44  and  _45
REMARK   18  A    between atoms: _44  and  _47
REMARK   19  A    between atoms: _47  and  _48
REMARK   20  A    between atoms: _51  and  _53
REMARK   21  A    between atoms: _53  and  _54
REMARK   22  A    between atoms: _53  and  _56
REMARK   23  A    between atoms: _56  and  _57
REMARK   24  A    between atoms: _62  and  _64
REMARK   25  A    between atoms: _64  and  _65
REMARK   26  A    between atoms: _64  and  _67
REMARK   27  A    between atoms: _67  and  _68
REMARK   28  A    between atoms: _68  and  _69
REMARK   29  A    between atoms: _74  and  _76
REMARK   30  A    between atoms: _76  and  _77
REMARK   31  A    between atoms: _76  and  _79
REMARK   32  A    between atoms: _79  and  _80
REMARK   33  A    between atoms: _83  and  _85
REMARK   34  A    between atoms: _85  and  _86
REMARK   35  A    between atoms: _85  and  _88
REMARK   36  A    between atoms: _88  and  _89
REMARK   37  A    between atoms: _89  and  _90
REMARK   38  A    between atoms: _90  and  _91
REMARK   39  A    between atoms: _91  and  _92
REMARK   40  A    between atoms: _96  and  _98
REMARK   41  A    between atoms: _98  and  _99
REMARK   42  A    between atoms: _98  and  _101
REMARK   43  A    between atoms: _104  and  _106
REMARK   44  A    between atoms: _106  and  _107
REMARK   45  A    between atoms: _106  and  _109
REMARK   46  A    between atoms: _109  and  _110
REMARK   47  A    between atoms: _110  and  _111
REMARK   48  A    between atoms: _111  and  _112
REMARK   49  A    between atoms: _121  and  _123
REMARK   50  A    between atoms: _123  and  _124
REMARK   51  A    between atoms: _123  and  _126
REMARK   52  A    between atoms: _128  and  _130
REMARK   53  A    between atoms: _130  and  _131
REMARK   54  A    between atoms: _130  and  _133
REMARK   55  A    between atoms: _133  and  _134
REMARK   56  A    between atoms: _139  and  _140
REMARK   57  A    between atoms: _142  and  _144
REMARK   58  A    between atoms: _144  and  _145
REMARK   59  A    between atoms: _147  and  _149
REMARK   60  A    between atoms: _149  and  _150
REMARK   61  A    between atoms: _152  and  _154
REMARK   62  A    between atoms: _154  and  _155
REMARK   63  A    between atoms: _154  and  _157
REMARK   64  A    between atoms: _157  and  _158
REMARK   65  A    between atoms: _161  and  _163
REMARK   66  A    between atoms: _163  and  _164
REMARK   67  A    between atoms: _163  and  _166
REMARK   68  A    between atoms: _166  and  _167
REMARK   69  A    between atoms: _167  and  _168
REMARK   70  A    between atoms: _173  and  _175
REMARK   71  A    between atoms: _175  and  _176
REMARK   72  A    between atoms: _175  and  _178
REMARK   73  A    between atoms: _178  and  _179
REMARK   74  A    between atoms: _181  and  _183
REMARK   75  A    between atoms: _183  and  _184
REMARK   76  A    between atoms: _183  and  _186
REMARK   77  A    between atoms: _186  and  _187
REMARK   78  A    between atoms: _197  and  _199
REMARK   79  A    between atoms: _199  and  _200
REMARK   80  A    between atoms: _199  and  _202
REMARK   81  A    between atoms: _202  and  _203
REMARK   82  A    between atoms: _203  and  _204
REMARK   83  A    between atoms: _204  and  _205
REMARK   84  A    between atoms: _205  and  _206
REMARK   85  A    between atoms: _210  and  _212
REMARK   86  A    between atoms: _212  and  _213
REMARK   87  A    between atoms: _212  and  _215
REMARK   88  A    between atoms: _215  and  _216
REMARK   89  A    between atoms: _216  and  _217
REMARK   90  A    between atoms: _217  and  _218
REMARK   91  A    between atoms: _227  and  _229
REMARK   92  A    between atoms: _229  and  _230
REMARK   93  A    between atoms: _229  and  _232
REMARK   94  A    between atoms: _232  and  _233
REMARK   95  A    between atoms: _236  and  _238
REMARK   96  A    between atoms: _238  and  _239
REMARK   97  A    between atoms: _238  and  _241
REMARK   98  A    between atoms: _241  and  _242
REMARK   99  A    between atoms: _246  and  _247
REMARK  100  A    between atoms: _252  and  _254
REMARK  101  A    between atoms: _254  and  _255
REMARK  102  A    between atoms: _254  and  _257
REMARK  103  A    between atoms: _257  and  _258
REMARK  104  A    between atoms: _258  and  _259
REMARK  105  A    between atoms: _262  and  _264
REMARK  106  A    between atoms: _264  and  _265
REMARK  107  A    between atoms: _264  and  _267
REMARK  108  A    between atoms: _267  and  _268
REMARK  109  A    between atoms: _273  and  _275
REMARK  110  A    between atoms: _275  and  _276
REMARK  111  A    between atoms: _275  and  _278
REMARK  112  A    between atoms: _278  and  _279
REMARK  113  A    between atoms: _279  and  _280
REMARK  114  A    between atoms: _280  and  _281
REMARK  115  A    between atoms: _281  and  _282
REMARK  116  A    between atoms: _286  and  _288
REMARK  117  A    between atoms: _288  and  _289
REMARK  118  A    between atoms: _288  and  _291
REMARK  119  A    between atoms: _291  and  _292
REMARK  120  A    between atoms: _302  and  _304
REMARK  121  A    between atoms: _304  and  _305
REMARK  122  A    between atoms: _304  and  _307
REMARK  123  A    between atoms: _307  and  _308
REMARK                            x       y       z     vdW  Elec       q    Type
REMARK                         _______ _______ _______ _____ _____    ______ ____
ROOT
ATOM      1  O   HOH     1      92.502  54.261  16.404  0.00  0.00    +0.000 OA
ENDROOT
TORSDOF 0
REMARK  Name = ../refined-set-2016/3gta/3gta_pocket.pdb
REMARK  123 active torsions:
REMARK  status: ('A' for Active; 'I' for Inactive)
REMARK    1  A    between atoms: _1  and  _3
REMARK    2  A    between atoms: _3  and  _4
REMARK    3  A    between atoms: _3  and  _6
REMARK    4  A    between atoms: _9  and  _11
REMARK    5  A    between atoms: _11  and  _12
REMARK    6  A    between atoms: _11  and  _14
REMARK    7  A    between atoms: _14  and  _15
REMARK    8  A    between atoms: _18  and  _20
REMARK    9  A    between atoms: _20  and  _21
REMARK   10  A    between atoms: _20  and  _23
REMARK   11  A    between atoms: _23  and  _24
REMARK   12  A    between atoms: _30  and  _32
REMARK   13  A    between atoms: _32  and  _33
REMARK   14  A    between atoms: _32  and  _35
REMARK   15  A    between atoms: _35  and  _36
REMARK   16  A    between atoms: _42  and  _44
REMARK   17  A    between atoms: _44  and  _45
REMARK   18  A    between atoms: _44  and  _47
REMARK   19  A    between atoms: _47  and  _48
REMARK   20  A    between atoms: _51  and  _53
REMARK   21  A    between atoms: _53  and  _54
REMARK   22  A    between atoms: _53  and  _56
REMARK   23  A    between atoms: _56  and  _57
REMARK   24  A    between atoms: _62  and  _64
REMARK   25  A    between atoms: _64  and  _65
REMARK   26  A    between atoms: _64  and  _67
REMARK   27  A    between atoms: _67  and  _68
REMARK   28  A    between atoms: _68  and  _69
REMARK   29  A    between atoms: _74  and  _76
REMARK   30  A    between atoms: _76  and  _77
REMARK   31  A    between atoms: _76  and  _79
REMARK   32  A    between atoms: _79  and  _80
REMARK   33  A    between atoms: _83  and  _85
REMARK   34  A    between atoms: _85  and  _86
REMARK   35  A    between atoms: _85  and  _88
REMARK   36  A    between atoms: _88  and  _89
REMARK   37  A    between atoms: _89  and  _90
REMARK   38  A    between atoms: _90  and  _91
REMARK   39  A    between atoms: _91  and  _92
REMARK   40  A    between atoms: _96  and  _98
REMARK   41  A    between atoms: _98  and  _99
REMARK   42  A    between atoms: _98  and  _101
REMARK   43  A    between atoms: _104  and  _106
REMARK   44  A    between atoms: _106  and  _107
REMARK   45  A    between atoms: _106  and  _109
REMARK   46  A    between atoms: _109  and  _110
REMARK   47  A    between atoms: _110  and  _111
REMARK   48  A    between atoms: _111  and  _112
REMARK   49  A    between atoms: _121  and  _123
REMARK   50  A    between atoms: _123  and  _124
REMARK   51  A    between atoms: _123  and  _126
REMARK   52  A    between atoms: _128  and  _130
REMARK   53  A    between atoms: _130  and  _131
REMARK   54  A    between atoms: _130  and  _133
REMARK   55  A    between atoms: _133  and  _134
REMARK   56  A    between atoms: _139  and  _140
REMARK   57  A    between atoms: _142  and  _144
REMARK   58  A    between atoms: _144  and  _145
REMARK   59  A    between atoms: _147  and  _149
REMARK   60  A    between atoms: _149  and  _150
REMARK   61  A    between atoms: _152  and  _154
REMARK   62  A    between atoms: _154  and  _155
REMARK   63  A    between atoms: _154  and  _157
REMARK   64  A    between atoms: _157  and  _158
REMARK   65  A    between atoms: _161  and  _163
REMARK   66  A    between atoms: _163  and  _164
REMARK   67  A    between atoms: _163  and  _166
REMARK   68  A    between atoms: _166  and  _167
REMARK   69  A    between atoms: _167  and  _168
REMARK   70  A    between atoms: _173  and  _175
REMARK   71  A    between atoms: _175  and  _176
REMARK   72  A    between atoms: _175  and  _178
REMARK   73  A    between atoms: _178  and  _179
REMARK   74  A    between atoms: _181  and  _183
REMARK   75  A    between atoms: _183  and  _184
REMARK   76  A    between atoms: _183  and  _186
REMARK   77  A    between atoms: _186  and  _187
REMARK   78  A    between atoms: _197  and  _199
REMARK   79  A    between atoms: _199  and  _200
REMARK   80  A    between atoms: _199  and  _202
REMARK   81  A    between atoms: _202  and  _203
REMARK   82  A    between atoms: _203  and  _204
REMARK   83  A    between atoms: _204  and  _205
REMARK   84  A    between atoms: _205  and  _206
REMARK   85  A    between atoms: _210  and  _212
REMARK   86  A    between atoms: _212  and  _213
REMARK   87  A    between atoms: _212  and  _215
REMARK   88  A    between atoms: _215  and  _216
REMARK   89  A    between atoms: _216  and  _217
REMARK   90  A    between atoms: _217  and  _218
REMARK   91  A    between atoms: _227  and  _229
REMARK   92  A    between atoms: _229  and  _230
REMARK   93  A    between atoms: _229  and  _232
REMARK   94  A    between atoms: _232  and  _233
REMARK   95  A    between atoms: _236  and  _238
REMARK   96  A    between atoms: _238  and  _239
REMARK   97  A    between atoms: _238  and  _241
REMARK   98  A    between atoms: _241  and  _242
REMARK   99  A    between atoms: _246  and  _247
REMARK  100  A    between atoms: _252  and  _254
REMARK  101  A    between atoms: _254  and  _255
REMARK  102  A    between atoms: _254  and  _257
REMARK  103  A    between atoms: _257  and  _258
REMARK  104  A    between atoms: _258  and  _259
REMARK  105  A    between atoms: _262  and  _264
REMARK  106  A    between atoms: _264  and  _265
REMARK  107  A    between atoms: _264  and  _267
REMARK  108  A    between atoms: _267  and  _268
REMARK  109  A    between atoms: _273  and  _275
REMARK  110  A    between atoms: _275  and  _276
REMARK  111  A    between atoms: _275  and  _278
REMARK  112  A    between atoms: _278  and  _279
REMARK  113  A    between atoms: _279  and  _280
REMARK  114  A    between atoms: _280  and  _281
REMARK  115  A    between atoms: _281  and  _282
REMARK  116  A    between atoms: _286  and  _288
REMARK  117  A    between atoms: _288  and  _289
REMARK  118  A    between atoms: _288  and  _291
REMARK  119  A    between atoms: _291  and  _292
REMARK  120  A    between atoms: _302  and  _304
REMARK  121  A    between atoms: _304  and  _305
REMARK  122  A    between atoms: _304  and  _307
REMARK  123  A    between atoms: _307  and  _308
REMARK                            x       y       z     vdW  Elec       q    Type
REMARK                         _______ _______ _______ _____ _____    ______ ____
ROOT
ATOM      1  O   HOH     1      73.566  66.195  17.309  0.00  0.00    +0.000 OA
ENDROOT
TORSDOF 0
REMARK  Name = ../refined-set-2016/3gta/3gta_pocket.pdb
REMARK  123 active torsions:
REMARK  status: ('A' for Active; 'I' for Inactive)
REMARK    1  A    between atoms: _1  and  _3
REMARK    2  A    between atoms: _3  and  _4
REMARK    3  A    between atoms: _3  and  _6
REMARK    4  A    between atoms: _9  and  _11
REMARK    5  A    between atoms: _11  and  _12
REMARK    6  A    between atoms: _11  and  _14
REMARK    7  A    between atoms: _14  and  _15
REMARK    8  A    between atoms: _18  and  _20
REMARK    9  A    between atoms: _20  and  _21
REMARK   10  A    between atoms: _20  and  _23
REMARK   11  A    between atoms: _23  and  _24
REMARK   12  A    between atoms: _30  and  _32
REMARK   13  A    between atoms: _32  and  _33
REMARK   14  A    between atoms: _32  and  _35
REMARK   15  A    between atoms: _35  and  _36
REMARK   16  A    between atoms: _42  and  _44
REMARK   17  A    between atoms: _44  and  _45
REMARK   18  A    between atoms: _44  and  _47
REMARK   19  A    between atoms: _47  and  _48
REMARK   20  A    between atoms: _51  and  _53
REMARK   21  A    between atoms: _53  and  _54
REMARK   22  A    between atoms: _53  and  _56
REMARK   23  A    between atoms: _56  and  _57
REMARK   24  A    between atoms: _62  and  _64
REMARK   25  A    between atoms: _64  and  _65
REMARK   26  A    between atoms: _64  and  _67
REMARK   27  A    between atoms: _67  and  _68
REMARK   28  A    between atoms: _68  and  _69
REMARK   29  A    between atoms: _74  and  _76
REMARK   30  A    between atoms: _76  and  _77
REMARK   31  A    between atoms: _76  and  _79
REMARK   32  A    between atoms: _79  and  _80
REMARK   33  A    between atoms: _83  and  _85
REMARK   34  A    between atoms: _85  and  _86
REMARK   35  A    between atoms: _85  and  _88
REMARK   36  A    between atoms: _88  and  _89
REMARK   37  A    between atoms: _89  and  _90
REMARK   38  A    between atoms: _90  and  _91
REMARK   39  A    between atoms: _91  and  _92
REMARK   40  A    between atoms: _96  and  _98
REMARK   41  A    between atoms: _98  and  _99
REMARK   42  A    between atoms: _98  and  _101
REMARK   43  A    between atoms: _104  and  _106
REMARK   44  A    between atoms: _106  and  _107
REMARK   45  A    between atoms: _106  and  _109
REMARK   46  A    between atoms: _109  and  _110
REMARK   47  A    between atoms: _110  and  _111
REMARK   48  A    between atoms: _111  and  _112
REMARK   49  A    between atoms: _121  and  _123
REMARK   50  A    between atoms: _123  and  _124
REMARK   51  A    between atoms: _123  and  _126
REMARK   52  A    between atoms: _128  and  _130
REMARK   53  A    between atoms: _130  and  _131
REMARK   54  A    between atoms: _130  and  _133
REMARK   55  A    between atoms: _133  and  _134
REMARK   56  A    between atoms: _139  and  _140
REMARK   57  A    between atoms: _142  and  _144
REMARK   58  A    between atoms: _144  and  _145
REMARK   59  A    between atoms: _147  and  _149
REMARK   60  A    between atoms: _149  and  _150
REMARK   61  A    between atoms: _152  and  _154
REMARK   62  A    between atoms: _154  and  _155
REMARK   63  A    between atoms: _154  and  _157
REMARK   64  A    between atoms: _157  and  _158
REMARK   65  A    between atoms: _161  and  _163
REMARK   66  A    between atoms: _163  and  _164
REMARK   67  A    between atoms: _163  and  _166
REMARK   68  A    between atoms: _166  and  _167
REMARK   69  A    between atoms: _167  and  _168
REMARK   70  A    between atoms: _173  and  _175
REMARK   71  A    between atoms: _175  and  _176
REMARK   72  A    between atoms: _175  and  _178
REMARK   73  A    between atoms: _178  and  _179
REMARK   74  A    between atoms: _181  and  _183
REMARK   75  A    between atoms: _183  and  _184
REMARK   76  A    between atoms: _183  and  _186
REMARK   77  A    between atoms: _186  and  _187
REMARK   78  A    between atoms: _197  and  _199
REMARK   79  A    between atoms: _199  and  _200
REMARK   80  A    between atoms: _199  and  _202
REMARK   81  A    between atoms: _202  and  _203
REMARK   82  A    between atoms: _203  and  _204
REMARK   83  A    between atoms: _204  and  _205
REMARK   84  A    between atoms: _205  and  _206
REMARK   85  A    between atoms: _210  and  _212
REMARK   86  A    between atoms: _212  and  _213
REMARK   87  A    between atoms: _212  and  _215
REMARK   88  A    between atoms: _215  and  _216
REMARK   89  A    between atoms: _216  and  _217
REMARK   90  A    between atoms: _217  and  _218
REMARK   91  A    between atoms: _227  and  _229
REMARK   92  A    between atoms: _229  and  _230
REMARK   93  A    between atoms: _229  and  _232
REMARK   94  A    between atoms: _232  and  _233
REMARK   95  A    between atoms: _236  and  _238
REMARK   96  A    between atoms: _238  and  _239
REMARK   97  A    between atoms: _238  and  _241
REMARK   98  A    between atoms: _241  and  _242
REMARK   99  A    between atoms: _246  and  _247
REMARK  100  A    between atoms: _252  and  _254
REMARK  101  A    between atoms: _254  and  _255
REMARK  102  A    between atoms: _254  and  _257
REMARK  103  A    between atoms: _257  and  _258
REMARK  104  A    between atoms: _258  and  _259
REMARK  105  A    between atoms: _262  and  _264
REMARK  106  A    between atoms: _264  and  _265
REMARK  107  A    between atoms: _264  and  _267
REMARK  108  A    between atoms: _267  and  _268
REMARK  109  A    between atoms: _273  and  _275
REMARK  110  A    between atoms: _275  and  _276
REMARK  111  A    between atoms: _275  and  _278
REMARK  112  A    between atoms: _278  and  _279
REMARK  113  A    between atoms: _279  and  _280
REMARK  114  A    between atoms: _280  and  _281
REMARK  115  A    between atoms: _281  and  _282
REMARK  116  A    between atoms: _286  and  _288
REMARK  117  A    between atoms: _288  and  _289
REMARK  118  A    between atoms: _288  and  _291
REMARK  119  A    between atoms: _291  and  _292
REMARK  120  A    between atoms: _302  and  _304
REMARK  121  A    between atoms: _304  and  _305
REMARK  122  A    between atoms: _304  and  _307
REMARK  123  A    between atoms: _307  and  _308
REMARK                            x       y       z     vdW  Elec       q    Type
REMARK                         _______ _______ _______ _____ _____    ______ ____
ROOT
ATOM      1  O   HOH     1      73.819  70.438  17.147  0.00  0.00    +0.000 OA
ENDROOT
TORSDOF 0
REMARK  Name = ../refined-set-2016/3gta/3gta_pocket.pdb
REMARK  123 active torsions:
REMARK  status: ('A' for Active; 'I' for Inactive)
REMARK    1  A    between atoms: _1  and  _3
REMARK    2  A    between atoms: _3  and  _4
REMARK    3  A    between atoms: _3  and  _6
REMARK    4  A    between atoms: _9  and  _11
REMARK    5  A    between atoms: _11  and  _12
REMARK    6  A    between atoms: _11  and  _14
REMARK    7  A    between atoms: _14  and  _15
REMARK    8  A    between atoms: _18  and  _20
REMARK    9  A    between atoms: _20  and  _21
REMARK   10  A    between atoms: _20  and  _23
REMARK   11  A    between atoms: _23  and  _24
REMARK   12  A    between atoms: _30  and  _32
REMARK   13  A    between atoms: _32  and  _33
REMARK   14  A    between atoms: _32  and  _35
REMARK   15  A    between atoms: _35  and  _36
REMARK   16  A    between atoms: _42  and  _44
REMARK   17  A    between atoms: _44  and  _45
REMARK   18  A    between atoms: _44  and  _47
REMARK   19  A    between atoms: _47  and  _48
REMARK   20  A    between atoms: _51  and  _53
REMARK   21  A    between atoms: _53  and  _54
REMARK   22  A    between atoms: _53  and  _56
REMARK   23  A    between atoms: _56  and  _57
REMARK   24  A    between atoms: _62  and  _64
REMARK   25  A    between atoms: _64  and  _65
REMARK   26  A    between atoms: _64  and  _67
REMARK   27  A    between atoms: _67  and  _68
REMARK   28  A    between atoms: _68  and  _69
REMARK   29  A    between atoms: _74  and  _76
REMARK   30  A    between atoms: _76  and  _77
REMARK   31  A    between atoms: _76  and  _79
REMARK   32  A    between atoms: _79  and  _80
REMARK   33  A    between atoms: _83  and  _85
REMARK   34  A    between atoms: _85  and  _86
REMARK   35  A    between atoms: _85  and  _88
REMARK   36  A    between atoms: _88  and  _89
REMARK   37  A    between atoms: _89  and  _90
REMARK   38  A    between atoms: _90  and  _91
REMARK   39  A    between atoms: _91  and  _92
REMARK   40  A    between atoms: _96  and  _98
REMARK   41  A    between atoms: _98  and  _99
REMARK   42  A    between atoms: _98  and  _101
REMARK   43  A    between atoms: _104  and  _106
REMARK   44  A    between atoms: _106  and  _107
REMARK   45  A    between atoms: _106  and  _109
REMARK   46  A    between atoms: _109  and  _110
REMARK   47  A    between atoms: _110  and  _111
REMARK   48  A    between atoms: _111  and  _112
REMARK   49  A    between atoms: _121  and  _123
REMARK   50  A    between atoms: _123  and  _124
REMARK   51  A    between atoms: _123  and  _126
REMARK   52  A    between atoms: _128  and  _130
REMARK   53  A    between atoms: _130  and  _131
REMARK   54  A    between atoms: _130  and  _133
REMARK   55  A    between atoms: _133  and  _134
REMARK   56  A    between atoms: _139  and  _140
REMARK   57  A    between atoms: _142  and  _144
REMARK   58  A    between atoms: _144  and  _145
REMARK   59  A    between atoms: _147  and  _149
REMARK   60  A    between atoms: _149  and  _150
REMARK   61  A    between atoms: _152  and  _154
REMARK   62  A    between atoms: _154  and  _155
REMARK   63  A    between atoms: _154  and  _157
REMARK   64  A    between atoms: _157  and  _158
REMARK   65  A    between atoms: _161  and  _163
REMARK   66  A    between atoms: _163  and  _164
REMARK   67  A    between atoms: _163  and  _166
REMARK   68  A    between atoms: _166  and  _167
REMARK   69  A    between atoms: _167  and  _168
REMARK   70  A    between atoms: _173  and  _175
REMARK   71  A    between atoms: _175  and  _176
REMARK   72  A    between atoms: _175  and  _178
REMARK   73  A    between atoms: _178  and  _179
REMARK   74  A    between atoms: _181  and  _183
REMARK   75  A    between atoms: _183  and  _184
REMARK   76  A    between atoms: _183  and  _186
REMARK   77  A    between atoms: _186  and  _187
REMARK   78  A    between atoms: _197  and  _199
REMARK   79  A    between atoms: _199  and  _200
REMARK   80  A    between atoms: _199  and  _202
REMARK   81  A    between atoms: _202  and  _203
REMARK   82  A    between atoms: _203  and  _204
REMARK   83  A    between atoms: _204  and  _205
REMARK   84  A    between atoms: _205  and  _206
REMARK   85  A    between atoms: _210  and  _212
REMARK   86  A    between atoms: _212  and  _213
REMARK   87  A    between atoms: _212  and  _215
REMARK   88  A    between atoms: _215  and  _216
REMARK   89  A    between atoms: _216  and  _217
REMARK   90  A    between atoms: _217  and  _218
REMARK   91  A    between atoms: _227  and  _229
REMARK   92  A    between atoms: _229  and  _230
REMARK   93  A    between atoms: _229  and  _232
REMARK   94  A    between atoms: _232  and  _233
REMARK   95  A    between atoms: _236  and  _238
REMARK   96  A    between atoms: _238  and  _239
REMARK   97  A    between atoms: _238  and  _241
REMARK   98  A    between atoms: _241  and  _242
REMARK   99  A    between atoms: _246  and  _247
REMARK  100  A    between atoms: _252  and  _254
REMARK  101  A    between atoms: _254  and  _255
REMARK  102  A    between atoms: _254  and  _257
REMARK  103  A    between atoms: _257  and  _258
REMARK  104  A    between atoms: _258  and  _259
REMARK  105  A    between atoms: _262  and  _264
REMARK  106  A    between atoms: _264  and  _265
REMARK  107  A    between atoms: _264  and  _267
REMARK  108  A    between atoms: _267  and  _268
REMARK  109  A    between atoms: _273  and  _275
REMARK  110  A    between atoms: _275  and  _276
REMARK  111  A    between atoms: _275  and  _278
REMARK  112  A    between atoms: _278  and  _279
REMARK  113  A    between atoms: _279  and  _280
REMARK  114  A    between atoms: _280  and  _281
REMARK  115  A    between atoms: _281  and  _282
REMARK  116  A    between atoms: _286  and  _288
REMARK  117  A    between atoms: _288  and  _289
REMARK  118  A    between atoms: _288  and  _291
REMARK  119  A    between atoms: _291  and  _292
REMARK  120  A    between atoms: _302  and  _304
REMARK  121  A    between atoms: _304  and  _305
REMARK  122  A    between atoms: _304  and  _307
REMARK  123  A    between atoms: _307  and  _308
REMARK                            x       y       z     vdW  Elec       q    Type
REMARK                         _______ _______ _______ _____ _____    ______ ____
ROOT
ATOM      1  O   HOH     1      91.990  62.870  16.020  0.00  0.00    +0.000 OA
ENDROOT
TORSDOF 0
REMARK  Name = ../refined-set-2016/3gta/3gta_pocket.pdb
REMARK  123 active torsions:
REMARK  status: ('A' for Active; 'I' for Inactive)
REMARK    1  A    between atoms: _1  and  _3
REMARK    2  A    between atoms: _3  and  _4
REMARK    3  A    between atoms: _3  and  _6
REMARK    4  A    between atoms: _9  and  _11
REMARK    5  A    between atoms: _11  and  _12
REMARK    6  A    between atoms: _11  and  _14
REMARK    7  A    between atoms: _14  and  _15
REMARK    8  A    between atoms: _18  and  _20
REMARK    9  A    between atoms: _20  and  _21
REMARK   10  A    between atoms: _20  and  _23
REMARK   11  A    between atoms: _23  and  _24
REMARK   12  A    between atoms: _30  and  _32
REMARK   13  A    between atoms: _32  and  _33
REMARK   14  A    between atoms: _32  and  _35
REMARK   15  A    between atoms: _35  and  _36
REMARK   16  A    between atoms: _42  and  _44
REMARK   17  A    between atoms: _44  and  _45
REMARK   18  A    between atoms: _44  and  _47
REMARK   19  A    between atoms: _47  and  _48
REMARK   20  A    between atoms: _51  and  _53
REMARK   21  A    between atoms: _53  and  _54
REMARK   22  A    between atoms: _53  and  _56
REMARK   23  A    between atoms: _56  and  _57
REMARK   24  A    between atoms: _62  and  _64
REMARK   25  A    between atoms: _64  and  _65
REMARK   26  A    between atoms: _64  and  _67
REMARK   27  A    between atoms: _67  and  _68
REMARK   28  A    between atoms: _68  and  _69
REMARK   29  A    between atoms: _74  and  _76
REMARK   30  A    between atoms: _76  and  _77
REMARK   31  A    between atoms: _76  and  _79
REMARK   32  A    between atoms: _79  and  _80
REMARK   33  A    between atoms: _83  and  _85
REMARK   34  A    between atoms: _85  and  _86
REMARK   35  A    between atoms: _85  and  _88
REMARK   36  A    between atoms: _88  and  _89
REMARK   37  A    between atoms: _89  and  _90
REMARK   38  A    between atoms: _90  and  _91
REMARK   39  A    between atoms: _91  and  _92
REMARK   40  A    between atoms: _96  and  _98
REMARK   41  A    between atoms: _98  and  _99
REMARK   42  A    between atoms: _98  and  _101
REMARK   43  A    between atoms: _104  and  _106
REMARK   44  A    between atoms: _106  and  _107
REMARK   45  A    between atoms: _106  and  _109
REMARK   46  A    between atoms: _109  and  _110
REMARK   47  A    between atoms: _110  and  _111
REMARK   48  A    between atoms: _111  and  _112
REMARK   49  A    between atoms: _121  and  _123
REMARK   50  A    between atoms: _123  and  _124
REMARK   51  A    between atoms: _123  and  _126
REMARK   52  A    between atoms: _128  and  _130
REMARK   53  A    between atoms: _130  and  _131
REMARK   54  A    between atoms: _130  and  _133
REMARK   55  A    between atoms: _133  and  _134
REMARK   56  A    between atoms: _139  and  _140
REMARK   57  A    between atoms: _142  and  _144
REMARK   58  A    between atoms: _144  and  _145
REMARK   59  A    between atoms: _147  and  _149
REMARK   60  A    between atoms: _149  and  _150
REMARK   61  A    between atoms: _152  and  _154
REMARK   62  A    between atoms: _154  and  _155
REMARK   63  A    between atoms: _154  and  _157
REMARK   64  A    between atoms: _157  and  _158
REMARK   65  A    between atoms: _161  and  _163
REMARK   66  A    between atoms: _163  and  _164
REMARK   67  A    between atoms: _163  and  _166
REMARK   68  A    between atoms: _166  and  _167
REMARK   69  A    between atoms: _167  and  _168
REMARK   70  A    between atoms: _173  and  _175
REMARK   71  A    between atoms: _175  and  _176
REMARK   72  A    between atoms: _175  and  _178
REMARK   73  A    between atoms: _178  and  _179
REMARK   74  A    between atoms: _181  and  _183
REMARK   75  A    between atoms: _183  and  _184
REMARK   76  A    between atoms: _183  and  _186
REMARK   77  A    between atoms: _186  and  _187
REMARK   78  A    between atoms: _197  and  _199
REMARK   79  A    between atoms: _199  and  _200
REMARK   80  A    between atoms: _199  and  _202
REMARK   81  A    between atoms: _202  and  _203
REMARK   82  A    between atoms: _203  and  _204
REMARK   83  A    between atoms: _204  and  _205
REMARK   84  A    between atoms: _205  and  _206
REMARK   85  A    between atoms: _210  and  _212
REMARK   86  A    between atoms: _212  and  _213
REMARK   87  A    between atoms: _212  and  _215
REMARK   88  A    between atoms: _215  and  _216
REMARK   89  A    between atoms: _216  and  _217
REMARK   90  A    between atoms: _217  and  _218
REMARK   91  A    between atoms: _227  and  _229
REMARK   92  A    between atoms: _229  and  _230
REMARK   93  A    between atoms: _229  and  _232
REMARK   94  A    between atoms: _232  and  _233
REMARK   95  A    between atoms: _236  and  _238
REMARK   96  A    between atoms: _238  and  _239
REMARK   97  A    between atoms: _238  and  _241
REMARK   98  A    between atoms: _241  and  _242
REMARK   99  A    between atoms: _246  and  _247
REMARK  100  A    between atoms: _252  and  _254
REMARK  101  A    between atoms: _254  and  _255
REMARK  102  A    between atoms: _254  and  _257
REMARK  103  A    between atoms: _257  and  _258
REMARK  104  A    between atoms: _258  and  _259
REMARK  105  A    between atoms: _262  and  _264
REMARK  106  A    between atoms: _264  and  _265
REMARK  107  A    between atoms: _264  and  _267
REMARK  108  A    between atoms: _267  and  _268
REMARK  109  A    between atoms: _273  and  _275
REMARK  110  A    between atoms: _275  and  _276
REMARK  111  A    between atoms: _275  and  _278
REMARK  112  A    between atoms: _278  and  _279
REMARK  113  A    between atoms: _279  and  _280
REMARK  114  A    between atoms: _280  and  _281
REMARK  115  A    between atoms: _281  and  _282
REMARK  116  A    between atoms: _286  and  _288
REMARK  117  A    between atoms: _288  and  _289
REMARK  118  A    between atoms: _288  and  _291
REMARK  119  A    between atoms: _291  and  _292
REMARK  120  A    between atoms: _302  and  _304
REMARK  121  A    between atoms: _304  and  _305
REMARK  122  A    between atoms: _304  and  _307
REMARK  123  A    between atoms: _307  and  _308
REMARK                            x       y       z     vdW  Elec       q    Type
REMARK                         _______ _______ _______ _____ _____    ______ ____
ROOT
ATOM      1  O   HOH     1      83.636  54.378  20.094  0.00  0.00    +0.000 OA
ENDROOT
TORSDOF 0
REMARK  Name = ../refined-set-2016/3gta/3gta_pocket.pdb
REMARK  123 active torsions:
REMARK  status: ('A' for Active; 'I' for Inactive)
REMARK    1  A    between atoms: _1  and  _3
REMARK    2  A    between atoms: _3  and  _4
REMARK    3  A    between atoms: _3  and  _6
REMARK    4  A    between atoms: _9  and  _11
REMARK    5  A    between atoms: _11  and  _12
REMARK    6  A    between atoms: _11  and  _14
REMARK    7  A    between atoms: _14  and  _15
REMARK    8  A    between atoms: _18  and  _20
REMARK    9  A    between atoms: _20  and  _21
REMARK   10  A    between atoms: _20  and  _23
REMARK   11  A    between atoms: _23  and  _24
REMARK   12  A    between atoms: _30  and  _32
REMARK   13  A    between atoms: _32  and  _33
REMARK   14  A    between atoms: _32  and  _35
REMARK   15  A    between atoms: _35  and  _36
REMARK   16  A    between atoms: _42  and  _44
REMARK   17  A    between atoms: _44  and  _45
REMARK   18  A    between atoms: _44  and  _47
REMARK   19  A    between atoms: _47  and  _48
REMARK   20  A    between atoms: _51  and  _53
REMARK   21  A    between atoms: _53  and  _54
REMARK   22  A    between atoms: _53  and  _56
REMARK   23  A    between atoms: _56  and  _57
REMARK   24  A    between atoms: _62  and  _64
REMARK   25  A    between atoms: _64  and  _65
REMARK   26  A    between atoms: _64  and  _67
REMARK   27  A    between atoms: _67  and  _68
REMARK   28  A    between atoms: _68  and  _69
REMARK   29  A    between atoms: _74  and  _76
REMARK   30  A    between atoms: _76  and  _77
REMARK   31  A    between atoms: _76  and  _79
REMARK   32  A    between atoms: _79  and  _80
REMARK   33  A    between atoms: _83  and  _85
REMARK   34  A    between atoms: _85  and  _86
REMARK   35  A    between atoms: _85  and  _88
REMARK   36  A    between atoms: _88  and  _89
REMARK   37  A    between atoms: _89  and  _90
REMARK   38  A    between atoms: _90  and  _91
REMARK   39  A    between atoms: _91  and  _92
REMARK   40  A    between atoms: _96  and  _98
REMARK   41  A    between atoms: _98  and  _99
REMARK   42  A    between atoms: _98  and  _101
REMARK   43  A    between atoms: _104  and  _106
REMARK   44  A    between atoms: _106  and  _107
REMARK   45  A    between atoms: _106  and  _109
REMARK   46  A    between atoms: _109  and  _110
REMARK   47  A    between atoms: _110  and  _111
REMARK   48  A    between atoms: _111  and  _112
REMARK   49  A    between atoms: _121  and  _123
REMARK   50  A    between atoms: _123  and  _124
REMARK   51  A    between atoms: _123  and  _126
REMARK   52  A    between atoms: _128  and  _130
REMARK   53  A    between atoms: _130  and  _131
REMARK   54  A    between atoms: _130  and  _133
REMARK   55  A    between atoms: _133  and  _134
REMARK   56  A    between atoms: _139  and  _140
REMARK   57  A    between atoms: _142  and  _144
REMARK   58  A    between atoms: _144  and  _145
REMARK   59  A    between atoms: _147  and  _149
REMARK   60  A    between atoms: _149  and  _150
REMARK   61  A    between atoms: _152  and  _154
REMARK   62  A    between atoms: _154  and  _155
REMARK   63  A    between atoms: _154  and  _157
REMARK   64  A    between atoms: _157  and  _158
REMARK   65  A    between atoms: _161  and  _163
REMARK   66  A    between atoms: _163  and  _164
REMARK   67  A    between atoms: _163  and  _166
REMARK   68  A    between atoms: _166  and  _167
REMARK   69  A    between atoms: _167  and  _168
REMARK   70  A    between atoms: _173  and  _175
REMARK   71  A    between atoms: _175  and  _176
REMARK   72  A    between atoms: _175  and  _178
REMARK   73  A    between atoms: _178  and  _179
REMARK   74  A    between atoms: _181  and  _183
REMARK   75  A    between atoms: _183  and  _184
REMARK   76  A    between atoms: _183  and  _186
REMARK   77  A    between atoms: _186  and  _187
REMARK   78  A    between atoms: _197  and  _199
REMARK   79  A    between atoms: _199  and  _200
REMARK   80  A    between atoms: _199  and  _202
REMARK   81  A    between atoms: _202  and  _203
REMARK   82  A    between atoms: _203  and  _204
REMARK   83  A    between atoms: _204  and  _205
REMARK   84  A    between atoms: _205  and  _206
REMARK   85  A    between atoms: _210  and  _212
REMARK   86  A    between atoms: _212  and  _213
REMARK   87  A    between atoms: _212  and  _215
REMARK   88  A    between atoms: _215  and  _216
REMARK   89  A    between atoms: _216  and  _217
REMARK   90  A    between atoms: _217  and  _218
REMARK   91  A    between atoms: _227  and  _229
REMARK   92  A    between atoms: _229  and  _230
REMARK   93  A    between atoms: _229  and  _232
REMARK   94  A    between atoms: _232  and  _233
REMARK   95  A    between atoms: _236  and  _238
REMARK   96  A    between atoms: _238  and  _239
REMARK   97  A    between atoms: _238  and  _241
REMARK   98  A    between atoms: _241  and  _242
REMARK   99  A    between atoms: _246  and  _247
REMARK  100  A    between atoms: _252  and  _254
REMARK  101  A    between atoms: _254  and  _255
REMARK  102  A    between atoms: _254  and  _257
REMARK  103  A    between atoms: _257  and  _258
REMARK  104  A    between atoms: _258  and  _259
REMARK  105  A    between atoms: _262  and  _264
REMARK  106  A    between atoms: _264  and  _265
REMARK  107  A    between atoms: _264  and  _267
REMARK  108  A    between atoms: _267  and  _268
REMARK  109  A    between atoms: _273  and  _275
REMARK  110  A    between atoms: _275  and  _276
REMARK  111  A    between atoms: _275  and  _278
REMARK  112  A    between atoms: _278  and  _279
REMARK  113  A    between atoms: _279  and  _280
REMARK  114  A    between atoms: _280  and  _281
REMARK  115  A    between atoms: _281  and  _282
REMARK  116  A    between atoms: _286  and  _288
REMARK  117  A    between atoms: _288  and  _289
REMARK  118  A    between atoms: _288  and  _291
REMARK  119  A    between atoms: _291  and  _292
REMARK  120  A    between atoms: _302  and  _304
REMARK  121  A    between atoms: _304  and  _305
REMARK  122  A    between atoms: _304  and  _307
REMARK  123  A    between atoms: _307  and  _308
REMARK                            x       y       z     vdW  Elec       q    Type
REMARK                         _______ _______ _______ _____ _____    ______ ____
ROOT
ATOM      1  O   HOH     1      76.406  67.963  15.665  0.00  0.00    +0.000 OA
ENDROOT
TORSDOF 0
REMARK  Name = ../refined-set-2016/3gta/3gta_pocket.pdb
REMARK  123 active torsions:
REMARK  status: ('A' for Active; 'I' for Inactive)
REMARK    1  A    between atoms: _1  and  _3
REMARK    2  A    between atoms: _3  and  _4
REMARK    3  A    between atoms: _3  and  _6
REMARK    4  A    between atoms: _9  and  _11
REMARK    5  A    between atoms: _11  and  _12
REMARK    6  A    between atoms: _11  and  _14
REMARK    7  A    between atoms: _14  and  _15
REMARK    8  A    between atoms: _18  and  _20
REMARK    9  A    between atoms: _20  and  _21
REMARK   10  A    between atoms: _20  and  _23
REMARK   11  A    between atoms: _23  and  _24
REMARK   12  A    between atoms: _30  and  _32
REMARK   13  A    between atoms: _32  and  _33
REMARK   14  A    between atoms: _32  and  _35
REMARK   15  A    between atoms: _35  and  _36
REMARK   16  A    between atoms: _42  and  _44
REMARK   17  A    between atoms: _44  and  _45
REMARK   18  A    between atoms: _44  and  _47
REMARK   19  A    between atoms: _47  and  _48
REMARK   20  A    between atoms: _51  and  _53
REMARK   21  A    between atoms: _53  and  _54
REMARK   22  A    between atoms: _53  and  _56
REMARK   23  A    between atoms: _56  and  _57
REMARK   24  A    between atoms: _62  and  _64
REMARK   25  A    between atoms: _64  and  _65
REMARK   26  A    between atoms: _64  and  _67
REMARK   27  A    between atoms: _67  and  _68
REMARK   28  A    between atoms: _68  and  _69
REMARK   29  A    between atoms: _74  and  _76
REMARK   30  A    between atoms: _76  and  _77
REMARK   31  A    between atoms: _76  and  _79
REMARK   32  A    between atoms: _79  and  _80
REMARK   33  A    between atoms: _83  and  _85
REMARK   34  A    between atoms: _85  and  _86
REMARK   35  A    between atoms: _85  and  _88
REMARK   36  A    between atoms: _88  and  _89
REMARK   37  A    between atoms: _89  and  _90
REMARK   38  A    between atoms: _90  and  _91
REMARK   39  A    between atoms: _91  and  _92
REMARK   40  A    between atoms: _96  and  _98
REMARK   41  A    between atoms: _98  and  _99
REMARK   42  A    between atoms: _98  and  _101
REMARK   43  A    between atoms: _104  and  _106
REMARK   44  A    between atoms: _106  and  _107
REMARK   45  A    between atoms: _106  and  _109
REMARK   46  A    between atoms: _109  and  _110
REMARK   47  A    between atoms: _110  and  _111
REMARK   48  A    between atoms: _111  and  _112
REMARK   49  A    between atoms: _121  and  _123
REMARK   50  A    between atoms: _123  and  _124
REMARK   51  A    between atoms: _123  and  _126
REMARK   52  A    between atoms: _128  and  _130
REMARK   53  A    between atoms: _130  and  _131
REMARK   54  A    between atoms: _130  and  _133
REMARK   55  A    between atoms: _133  and  _134
REMARK   56  A    between atoms: _139  and  _140
REMARK   57  A    between atoms: _142  and  _144
REMARK   58  A    between atoms: _144  and  _145
REMARK   59  A    between atoms: _147  and  _149
REMARK   60  A    between atoms: _149  and  _150
REMARK   61  A    between atoms: _152  and  _154
REMARK   62  A    between atoms: _154  and  _155
REMARK   63  A    between atoms: _154  and  _157
REMARK   64  A    between atoms: _157  and  _158
REMARK   65  A    between atoms: _161  and  _163
REMARK   66  A    between atoms: _163  and  _164
REMARK   67  A    between atoms: _163  and  _166
REMARK   68  A    between atoms: _166  and  _167
REMARK   69  A    between atoms: _167  and  _168
REMARK   70  A    between atoms: _173  and  _175
REMARK   71  A    between atoms: _175  and  _176
REMARK   72  A    between atoms: _175  and  _178
REMARK   73  A    between atoms: _178  and  _179
REMARK   74  A    between atoms: _181  and  _183
REMARK   75  A    between atoms: _183  and  _184
REMARK   76  A    between atoms: _183  and  _186
REMARK   77  A    between atoms: _186  and  _187
REMARK   78  A    between atoms: _197  and  _199
REMARK   79  A    between atoms: _199  and  _200
REMARK   80  A    between atoms: _199  and  _202
REMARK   81  A    between atoms: _202  and  _203
REMARK   82  A    between atoms: _203  and  _204
REMARK   83  A    between atoms: _204  and  _205
REMARK   84  A    between atoms: _205  and  _206
REMARK   85  A    between atoms: _210  and  _212
REMARK   86  A    between atoms: _212  and  _213
REMARK   87  A    between atoms: _212  and  _215
REMARK   88  A    between atoms: _215  and  _216
REMARK   89  A    between atoms: _216  and  _217
REMARK   90  A    between atoms: _217  and  _218
REMARK   91  A    between atoms: _227  and  _229
REMARK   92  A    between atoms: _229  and  _230
REMARK   93  A    between atoms: _229  and  _232
REMARK   94  A    between atoms: _232  and  _233
REMARK   95  A    between atoms: _236  and  _238
REMARK   96  A    between atoms: _238  and  _239
REMARK   97  A    between atoms: _238  and  _241
REMARK   98  A    between atoms: _241  and  _242
REMARK   99  A    between atoms: _246  and  _247
REMARK  100  A    between atoms: _252  and  _254
REMARK  101  A    between atoms: _254  and  _255
REMARK  102  A    between atoms: _254  and  _257
REMARK  103  A    between atoms: _257  and  _258
REMARK  104  A    between atoms: _258  and  _259
REMARK  105  A    between atoms: _262  and  _264
REMARK  106  A    between atoms: _264  and  _265
REMARK  107  A    between atoms: _264  and  _267
REMARK  108  A    between atoms: _267  and  _268
REMARK  109  A    between atoms: _273  and  _275
REMARK  110  A    between atoms: _275  and  _276
REMARK  111  A    between atoms: _275  and  _278
REMARK  112  A    between atoms: _278  and  _279
REMARK  113  A    between atoms: _279  and  _280
REMARK  114  A    between atoms: _280  and  _281
REMARK  115  A    between atoms: _281  and  _282
REMARK  116  A    between atoms: _286  and  _288
REMARK  117  A    between atoms: _288  and  _289
REMARK  118  A    between atoms: _288  and  _291
REMARK  119  A    between atoms: _291  and  _292
REMARK  120  A    between atoms: _302  and  _304
REMARK  121  A    between atoms: _304  and  _305
REMARK  122  A    between atoms: _304  and  _307
REMARK  123  A    between atoms: _307  and  _308
REMARK                            x       y       z     vdW  Elec       q    Type
REMARK                         _______ _______ _______ _____ _____    ______ ____
ROOT
ATOM      1  O   HOH     1      84.180  56.411  14.076  0.00  0.00    +0.000 OA
ENDROOT
TORSDOF 0
REMARK  Name = ../refined-set-2016/3gta/3gta_pocket.pdb
REMARK  123 active torsions:
REMARK  status: ('A' for Active; 'I' for Inactive)
REMARK    1  A    between atoms: _1  and  _3
REMARK    2  A    between atoms: _3  and  _4
REMARK    3  A    between atoms: _3  and  _6
REMARK    4  A    between atoms: _9  and  _11
REMARK    5  A    between atoms: _11  and  _12
REMARK    6  A    between atoms: _11  and  _14
REMARK    7  A    between atoms: _14  and  _15
REMARK    8  A    between atoms: _18  and  _20
REMARK    9  A    between atoms: _20  and  _21
REMARK   10  A    between atoms: _20  and  _23
REMARK   11  A    between atoms: _23  and  _24
REMARK   12  A    between atoms: _30  and  _32
REMARK   13  A    between atoms: _32  and  _33
REMARK   14  A    between atoms: _32  and  _35
REMARK   15  A    between atoms: _35  and  _36
REMARK   16  A    between atoms: _42  and  _44
REMARK   17  A    between atoms: _44  and  _45
REMARK   18  A    between atoms: _44  and  _47
REMARK   19  A    between atoms: _47  and  _48
REMARK   20  A    between atoms: _51  and  _53
REMARK   21  A    between atoms: _53  and  _54
REMARK   22  A    between atoms: _53  and  _56
REMARK   23  A    between atoms: _56  and  _57
REMARK   24  A    between atoms: _62  and  _64
REMARK   25  A    between atoms: _64  and  _65
REMARK   26  A    between atoms: _64  and  _67
REMARK   27  A    between atoms: _67  and  _68
REMARK   28  A    between atoms: _68  and  _69
REMARK   29  A    between atoms: _74  and  _76
REMARK   30  A    between atoms: _76  and  _77
REMARK   31  A    between atoms: _76  and  _79
REMARK   32  A    between atoms: _79  and  _80
REMARK   33  A    between atoms: _83  and  _85
REMARK   34  A    between atoms: _85  and  _86
REMARK   35  A    between atoms: _85  and  _88
REMARK   36  A    between atoms: _88  and  _89
REMARK   37  A    between atoms: _89  and  _90
REMARK   38  A    between atoms: _90  and  _91
REMARK   39  A    between atoms: _91  and  _92
REMARK   40  A    between atoms: _96  and  _98
REMARK   41  A    between atoms: _98  and  _99
REMARK   42  A    between atoms: _98  and  _101
REMARK   43  A    between atoms: _104  and  _106
REMARK   44  A    between atoms: _106  and  _107
REMARK   45  A    between atoms: _106  and  _109
REMARK   46  A    between atoms: _109  and  _110
REMARK   47  A    between atoms: _110  and  _111
REMARK   48  A    between atoms: _111  and  _112
REMARK   49  A    between atoms: _121  and  _123
REMARK   50  A    between atoms: _123  and  _124
REMARK   51  A    between atoms: _123  and  _126
REMARK   52  A    between atoms: _128  and  _130
REMARK   53  A    between atoms: _130  and  _131
REMARK   54  A    between atoms: _130  and  _133
REMARK   55  A    between atoms: _133  and  _134
REMARK   56  A    between atoms: _139  and  _140
REMARK   57  A    between atoms: _142  and  _144
REMARK   58  A    between atoms: _144  and  _145
REMARK   59  A    between atoms: _147  and  _149
REMARK   60  A    between atoms: _149  and  _150
REMARK   61  A    between atoms: _152  and  _154
REMARK   62  A    between atoms: _154  and  _155
REMARK   63  A    between atoms: _154  and  _157
REMARK   64  A    between atoms: _157  and  _158
REMARK   65  A    between atoms: _161  and  _163
REMARK   66  A    between atoms: _163  and  _164
REMARK   67  A    between atoms: _163  and  _166
REMARK   68  A    between atoms: _166  and  _167
REMARK   69  A    between atoms: _167  and  _168
REMARK   70  A    between atoms: _173  and  _175
REMARK   71  A    between atoms: _175  and  _176
REMARK   72  A    between atoms: _175  and  _178
REMARK   73  A    between atoms: _178  and  _179
REMARK   74  A    between atoms: _181  and  _183
REMARK   75  A    between atoms: _183  and  _184
REMARK   76  A    between atoms: _183  and  _186
REMARK   77  A    between atoms: _186  and  _187
REMARK   78  A    between atoms: _197  and  _199
REMARK   79  A    between atoms: _199  and  _200
REMARK   80  A    between atoms: _199  and  _202
REMARK   81  A    between atoms: _202  and  _203
REMARK   82  A    between atoms: _203  and  _204
REMARK   83  A    between atoms: _204  and  _205
REMARK   84  A    between atoms: _205  and  _206
REMARK   85  A    between atoms: _210  and  _212
REMARK   86  A    between atoms: _212  and  _213
REMARK   87  A    between atoms: _212  and  _215
REMARK   88  A    between atoms: _215  and  _216
REMARK   89  A    between atoms: _216  and  _217
REMARK   90  A    between atoms: _217  and  _218
REMARK   91  A    between atoms: _227  and  _229
REMARK   92  A    between atoms: _229  and  _230
REMARK   93  A    between atoms: _229  and  _232
REMARK   94  A    between atoms: _232  and  _233
REMARK   95  A    between atoms: _236  and  _238
REMARK   96  A    between atoms: _238  and  _239
REMARK   97  A    between atoms: _238  and  _241
REMARK   98  A    between atoms: _241  and  _242
REMARK   99  A    between atoms: _246  and  _247
REMARK  100  A    between atoms: _252  and  _254
REMARK  101  A    between atoms: _254  and  _255
REMARK  102  A    between atoms: _254  and  _257
REMARK  103  A    between atoms: _257  and  _258
REMARK  104  A    between atoms: _258  and  _259
REMARK  105  A    between atoms: _262  and  _264
REMARK  106  A    between atoms: _264  and  _265
REMARK  107  A    between atoms: _264  and  _267
REMARK  108  A    between atoms: _267  and  _268
REMARK  109  A    between atoms: _273  and  _275
REMARK  110  A    between atoms: _275  and  _276
REMARK  111  A    between atoms: _275  and  _278
REMARK  112  A    between atoms: _278  and  _279
REMARK  113  A    between atoms: _279  and  _280
REMARK  114  A    between atoms: _280  and  _281
REMARK  115  A    between atoms: _281  and  _282
REMARK  116  A    between atoms: _286  and  _288
REMARK  117  A    between atoms: _288  and  _289
REMARK  118  A    between atoms: _288  and  _291
REMARK  119  A    between atoms: _291  and  _292
REMARK  120  A    between atoms: _302  and  _304
REMARK  121  A    between atoms: _304  and  _305
REMARK  122  A    between atoms: _304  and  _307
REMARK  123  A    between atoms: _307  and  _308
REMARK                            x       y       z     vdW  Elec       q    Type
REMARK                         _______ _______ _______ _____ _____    ______ ____
ROOT
ATOM      1  O   HOH     1      75.781  65.312  16.135  0.00  0.00    +0.000 OA
ENDROOT
TORSDOF 0
REMARK  Name = ../refined-set-2016/3gta/3gta_pocket.pdb
REMARK  123 active torsions:
REMARK  status: ('A' for Active; 'I' for Inactive)
REMARK    1  A    between atoms: _1  and  _3
REMARK    2  A    between atoms: _3  and  _4
REMARK    3  A    between atoms: _3  and  _6
REMARK    4  A    between atoms: _9  and  _11
REMARK    5  A    between atoms: _11  and  _12
REMARK    6  A    between atoms: _11  and  _14
REMARK    7  A    between atoms: _14  and  _15
REMARK    8  A    between atoms: _18  and  _20
REMARK    9  A    between atoms: _20  and  _21
REMARK   10  A    between atoms: _20  and  _23
REMARK   11  A    between atoms: _23  and  _24
REMARK   12  A    between atoms: _30  and  _32
REMARK   13  A    between atoms: _32  and  _33
REMARK   14  A    between atoms: _32  and  _35
REMARK   15  A    between atoms: _35  and  _36
REMARK   16  A    between atoms: _42  and  _44
REMARK   17  A    between atoms: _44  and  _45
REMARK   18  A    between atoms: _44  and  _47
REMARK   19  A    between atoms: _47  and  _48
REMARK   20  A    between atoms: _51  and  _53
REMARK   21  A    between atoms: _53  and  _54
REMARK   22  A    between atoms: _53  and  _56
REMARK   23  A    between atoms: _56  and  _57
REMARK   24  A    between atoms: _62  and  _64
REMARK   25  A    between atoms: _64  and  _65
REMARK   26  A    between atoms: _64  and  _67
REMARK   27  A    between atoms: _67  and  _68
REMARK   28  A    between atoms: _68  and  _69
REMARK   29  A    between atoms: _74  and  _76
REMARK   30  A    between atoms: _76  and  _77
REMARK   31  A    between atoms: _76  and  _79
REMARK   32  A    between atoms: _79  and  _80
REMARK   33  A    between atoms: _83  and  _85
REMARK   34  A    between atoms: _85  and  _86
REMARK   35  A    between atoms: _85  and  _88
REMARK   36  A    between atoms: _88  and  _89
REMARK   37  A    between atoms: _89  and  _90
REMARK   38  A    between atoms: _90  and  _91
REMARK   39  A    between atoms: _91  and  _92
REMARK   40  A    between atoms: _96  and  _98
REMARK   41  A    between atoms: _98  and  _99
REMARK   42  A    between atoms: _98  and  _101
REMARK   43  A    between atoms: _104  and  _106
REMARK   44  A    between atoms: _106  and  _107
REMARK   45  A    between atoms: _106  and  _109
REMARK   46  A    between atoms: _109  and  _110
REMARK   47  A    between atoms: _110  and  _111
REMARK   48  A    between atoms: _111  and  _112
REMARK   49  A    between atoms: _121  and  _123
REMARK   50  A    between atoms: _123  and  _124
REMARK   51  A    between atoms: _123  and  _126
REMARK   52  A    between atoms: _128  and  _130
REMARK   53  A    between atoms: _130  and  _131
REMARK   54  A    between atoms: _130  and  _133
REMARK   55  A    between atoms: _133  and  _134
REMARK   56  A    between atoms: _139  and  _140
REMARK   57  A    between atoms: _142  and  _144
REMARK   58  A    between atoms: _144  and  _145
REMARK   59  A    between atoms: _147  and  _149
REMARK   60  A    between atoms: _149  and  _150
REMARK   61  A    between atoms: _152  and  _154
REMARK   62  A    between atoms: _154  and  _155
REMARK   63  A    between atoms: _154  and  _157
REMARK   64  A    between atoms: _157  and  _158
REMARK   65  A    between atoms: _161  and  _163
REMARK   66  A    between atoms: _163  and  _164
REMARK   67  A    between atoms: _163  and  _166
REMARK   68  A    between atoms: _166  and  _167
REMARK   69  A    between atoms: _167  and  _168
REMARK   70  A    between atoms: _173  and  _175
REMARK   71  A    between atoms: _175  and  _176
REMARK   72  A    between atoms: _175  and  _178
REMARK   73  A    between atoms: _178  and  _179
REMARK   74  A    between atoms: _181  and  _183
REMARK   75  A    between atoms: _183  and  _184
REMARK   76  A    between atoms: _183  and  _186
REMARK   77  A    between atoms: _186  and  _187
REMARK   78  A    between atoms: _197  and  _199
REMARK   79  A    between atoms: _199  and  _200
REMARK   80  A    between atoms: _199  and  _202
REMARK   81  A    between atoms: _202  and  _203
REMARK   82  A    between atoms: _203  and  _204
REMARK   83  A    between atoms: _204  and  _205
REMARK   84  A    between atoms: _205  and  _206
REMARK   85  A    between atoms: _210  and  _212
REMARK   86  A    between atoms: _212  and  _213
REMARK   87  A    between atoms: _212  and  _215
REMARK   88  A    between atoms: _215  and  _216
REMARK   89  A    between atoms: _216  and  _217
REMARK   90  A    between atoms: _217  and  _218
REMARK   91  A    between atoms: _227  and  _229
REMARK   92  A    between atoms: _229  and  _230
REMARK   93  A    between atoms: _229  and  _232
REMARK   94  A    between atoms: _232  and  _233
REMARK   95  A    between atoms: _236  and  _238
REMARK   96  A    between atoms: _238  and  _239
REMARK   97  A    between atoms: _238  and  _241
REMARK   98  A    between atoms: _241  and  _242
REMARK   99  A    between atoms: _246  and  _247
REMARK  100  A    between atoms: _252  and  _254
REMARK  101  A    between atoms: _254  and  _255
REMARK  102  A    between atoms: _254  and  _257
REMARK  103  A    between atoms: _257  and  _258
REMARK  104  A    between atoms: _258  and  _259
REMARK  105  A    between atoms: _262  and  _264
REMARK  106  A    between atoms: _264  and  _265
REMARK  107  A    between atoms: _264  and  _267
REMARK  108  A    between atoms: _267  and  _268
REMARK  109  A    between atoms: _273  and  _275
REMARK  110  A    between atoms: _275  and  _276
REMARK  111  A    between atoms: _275  and  _278
REMARK  112  A    between atoms: _278  and  _279
REMARK  113  A    between atoms: _279  and  _280
REMARK  114  A    between atoms: _280  and  _281
REMARK  115  A    between atoms: _281  and  _282
REMARK  116  A    between atoms: _286  and  _288
REMARK  117  A    between atoms: _288  and  _289
REMARK  118  A    between atoms: _288  and  _291
REMARK  119  A    between atoms: _291  and  _292
REMARK  120  A    between atoms: _302  and  _304
REMARK  121  A    between atoms: _304  and  _305
REMARK  122  A    between atoms: _304  and  _307
REMARK  123  A    between atoms: _307  and  _308
REMARK                            x       y       z     vdW  Elec       q    Type
REMARK                         _______ _______ _______ _____ _____    ______ ____
ROOT
ATOM      1  O   HOH     1      72.826  62.006  24.059  0.00  0.00    +0.000 OA
ENDROOT
TORSDOF 0
REMARK  Name = ../refined-set-2016/3gta/3gta_pocket.pdb
REMARK  123 active torsions:
REMARK  status: ('A' for Active; 'I' for Inactive)
REMARK    1  A    between atoms: _1  and  _3
REMARK    2  A    between atoms: _3  and  _4
REMARK    3  A    between atoms: _3  and  _6
REMARK    4  A    between atoms: _9  and  _11
REMARK    5  A    between atoms: _11  and  _12
REMARK    6  A    between atoms: _11  and  _14
REMARK    7  A    between atoms: _14  and  _15
REMARK    8  A    between atoms: _18  and  _20
REMARK    9  A    between atoms: _20  and  _21
REMARK   10  A    between atoms: _20  and  _23
REMARK   11  A    between atoms: _23  and  _24
REMARK   12  A    between atoms: _30  and  _32
REMARK   13  A    between atoms: _32  and  _33
REMARK   14  A    between atoms: _32  and  _35
REMARK   15  A    between atoms: _35  and  _36
REMARK   16  A    between atoms: _42  and  _44
REMARK   17  A    between atoms: _44  and  _45
REMARK   18  A    between atoms: _44  and  _47
REMARK   19  A    between atoms: _47  and  _48
REMARK   20  A    between atoms: _51  and  _53
REMARK   21  A    between atoms: _53  and  _54
REMARK   22  A    between atoms: _53  and  _56
REMARK   23  A    between atoms: _56  and  _57
REMARK   24  A    between atoms: _62  and  _64
REMARK   25  A    between atoms: _64  and  _65
REMARK   26  A    between atoms: _64  and  _67
REMARK   27  A    between atoms: _67  and  _68
REMARK   28  A    between atoms: _68  and  _69
REMARK   29  A    between atoms: _74  and  _76
REMARK   30  A    between atoms: _76  and  _77
REMARK   31  A    between atoms: _76  and  _79
REMARK   32  A    between atoms: _79  and  _80
REMARK   33  A    between atoms: _83  and  _85
REMARK   34  A    between atoms: _85  and  _86
REMARK   35  A    between atoms: _85  and  _88
REMARK   36  A    between atoms: _88  and  _89
REMARK   37  A    between atoms: _89  and  _90
REMARK   38  A    between atoms: _90  and  _91
REMARK   39  A    between atoms: _91  and  _92
REMARK   40  A    between atoms: _96  and  _98
REMARK   41  A    between atoms: _98  and  _99
REMARK   42  A    between atoms: _98  and  _101
REMARK   43  A    between atoms: _104  and  _106
REMARK   44  A    between atoms: _106  and  _107
REMARK   45  A    between atoms: _106  and  _109
REMARK   46  A    between atoms: _109  and  _110
REMARK   47  A    between atoms: _110  and  _111
REMARK   48  A    between atoms: _111  and  _112
REMARK   49  A    between atoms: _121  and  _123
REMARK   50  A    between atoms: _123  and  _124
REMARK   51  A    between atoms: _123  and  _126
REMARK   52  A    between atoms: _128  and  _130
REMARK   53  A    between atoms: _130  and  _131
REMARK   54  A    between atoms: _130  and  _133
REMARK   55  A    between atoms: _133  and  _134
REMARK   56  A    between atoms: _139  and  _140
REMARK   57  A    between atoms: _142  and  _144
REMARK   58  A    between atoms: _144  and  _145
REMARK   59  A    between atoms: _147  and  _149
REMARK   60  A    between atoms: _149  and  _150
REMARK   61  A    between atoms: _152  and  _154
REMARK   62  A    between atoms: _154  and  _155
REMARK   63  A    between atoms: _154  and  _157
REMARK   64  A    between atoms: _157  and  _158
REMARK   65  A    between atoms: _161  and  _163
REMARK   66  A    between atoms: _163  and  _164
REMARK   67  A    between atoms: _163  and  _166
REMARK   68  A    between atoms: _166  and  _167
REMARK   69  A    between atoms: _167  and  _168
REMARK   70  A    between atoms: _173  and  _175
REMARK   71  A    between atoms: _175  and  _176
REMARK   72  A    between atoms: _175  and  _178
REMARK   73  A    between atoms: _178  and  _179
REMARK   74  A    between atoms: _181  and  _183
REMARK   75  A    between atoms: _183  and  _184
REMARK   76  A    between atoms: _183  and  _186
REMARK   77  A    between atoms: _186  and  _187
REMARK   78  A    between atoms: _197  and  _199
REMARK   79  A    between atoms: _199  and  _200
REMARK   80  A    between atoms: _199  and  _202
REMARK   81  A    between atoms: _202  and  _203
REMARK   82  A    between atoms: _203  and  _204
REMARK   83  A    between atoms: _204  and  _205
REMARK   84  A    between atoms: _205  and  _206
REMARK   85  A    between atoms: _210  and  _212
REMARK   86  A    between atoms: _212  and  _213
REMARK   87  A    between atoms: _212  and  _215
REMARK   88  A    between atoms: _215  and  _216
REMARK   89  A    between atoms: _216  and  _217
REMARK   90  A    between atoms: _217  and  _218
REMARK   91  A    between atoms: _227  and  _229
REMARK   92  A    between atoms: _229  and  _230
REMARK   93  A    between atoms: _229  and  _232
REMARK   94  A    between atoms: _232  and  _233
REMARK   95  A    between atoms: _236  and  _238
REMARK   96  A    between atoms: _238  and  _239
REMARK   97  A    between atoms: _238  and  _241
REMARK   98  A    between atoms: _241  and  _242
REMARK   99  A    between atoms: _246  and  _247
REMARK  100  A    between atoms: _252  and  _254
REMARK  101  A    between atoms: _254  and  _255
REMARK  102  A    between atoms: _254  and  _257
REMARK  103  A    between atoms: _257  and  _258
REMARK  104  A    between atoms: _258  and  _259
REMARK  105  A    between atoms: _262  and  _264
REMARK  106  A    between atoms: _264  and  _265
REMARK  107  A    between atoms: _264  and  _267
REMARK  108  A    between atoms: _267  and  _268
REMARK  109  A    between atoms: _273  and  _275
REMARK  110  A    between atoms: _275  and  _276
REMARK  111  A    between atoms: _275  and  _278
REMARK  112  A    between atoms: _278  and  _279
REMARK  113  A    between atoms: _279  and  _280
REMARK  114  A    between atoms: _280  and  _281
REMARK  115  A    between atoms: _281  and  _282
REMARK  116  A    between atoms: _286  and  _288
REMARK  117  A    between atoms: _288  and  _289
REMARK  118  A    between atoms: _288  and  _291
REMARK  119  A    between atoms: _291  and  _292
REMARK  120  A    between atoms: _302  and  _304
REMARK  121  A    between atoms: _304  and  _305
REMARK  122  A    between atoms: _304  and  _307
REMARK  123  A    between atoms: _307  and  _308
REMARK                            x       y       z     vdW  Elec       q    Type
REMARK                         _______ _______ _______ _____ _____    ______ ____
ROOT
ATOM      1  O   HOH     1      87.322  61.927  11.993  0.00  0.00    +0.000 OA
ENDROOT
TORSDOF 0
REMARK  Name = ../refined-set-2016/3gta/3gta_pocket.pdb
REMARK  123 active torsions:
REMARK  status: ('A' for Active; 'I' for Inactive)
REMARK    1  A    between atoms: _1  and  _3
REMARK    2  A    between atoms: _3  and  _4
REMARK    3  A    between atoms: _3  and  _6
REMARK    4  A    between atoms: _9  and  _11
REMARK    5  A    between atoms: _11  and  _12
REMARK    6  A    between atoms: _11  and  _14
REMARK    7  A    between atoms: _14  and  _15
REMARK    8  A    between atoms: _18  and  _20
REMARK    9  A    between atoms: _20  and  _21
REMARK   10  A    between atoms: _20  and  _23
REMARK   11  A    between atoms: _23  and  _24
REMARK   12  A    between atoms: _30  and  _32
REMARK   13  A    between atoms: _32  and  _33
REMARK   14  A    between atoms: _32  and  _35
REMARK   15  A    between atoms: _35  and  _36
REMARK   16  A    between atoms: _42  and  _44
REMARK   17  A    between atoms: _44  and  _45
REMARK   18  A    between atoms: _44  and  _47
REMARK   19  A    between atoms: _47  and  _48
REMARK   20  A    between atoms: _51  and  _53
REMARK   21  A    between atoms: _53  and  _54
REMARK   22  A    between atoms: _53  and  _56
REMARK   23  A    between atoms: _56  and  _57
REMARK   24  A    between atoms: _62  and  _64
REMARK   25  A    between atoms: _64  and  _65
REMARK   26  A    between atoms: _64  and  _67
REMARK   27  A    between atoms: _67  and  _68
REMARK   28  A    between atoms: _68  and  _69
REMARK   29  A    between atoms: _74  and  _76
REMARK   30  A    between atoms: _76  and  _77
REMARK   31  A    between atoms: _76  and  _79
REMARK   32  A    between atoms: _79  and  _80
REMARK   33  A    between atoms: _83  and  _85
REMARK   34  A    between atoms: _85  and  _86
REMARK   35  A    between atoms: _85  and  _88
REMARK   36  A    between atoms: _88  and  _89
REMARK   37  A    between atoms: _89  and  _90
REMARK   38  A    between atoms: _90  and  _91
REMARK   39  A    between atoms: _91  and  _92
REMARK   40  A    between atoms: _96  and  _98
REMARK   41  A    between atoms: _98  and  _99
REMARK   42  A    between atoms: _98  and  _101
REMARK   43  A    between atoms: _104  and  _106
REMARK   44  A    between atoms: _106  and  _107
REMARK   45  A    between atoms: _106  and  _109
REMARK   46  A    between atoms: _109  and  _110
REMARK   47  A    between atoms: _110  and  _111
REMARK   48  A    between atoms: _111  and  _112
REMARK   49  A    between atoms: _121  and  _123
REMARK   50  A    between atoms: _123  and  _124
REMARK   51  A    between atoms: _123  and  _126
REMARK   52  A    between atoms: _128  and  _130
REMARK   53  A    between atoms: _130  and  _131
REMARK   54  A    between atoms: _130  and  _133
REMARK   55  A    between atoms: _133  and  _134
REMARK   56  A    between atoms: _139  and  _140
REMARK   57  A    between atoms: _142  and  _144
REMARK   58  A    between atoms: _144  and  _145
REMARK   59  A    between atoms: _147  and  _149
REMARK   60  A    between atoms: _149  and  _150
REMARK   61  A    between atoms: _152  and  _154
REMARK   62  A    between atoms: _154  and  _155
REMARK   63  A    between atoms: _154  and  _157
REMARK   64  A    between atoms: _157  and  _158
REMARK   65  A    between atoms: _161  and  _163
REMARK   66  A    between atoms: _163  and  _164
REMARK   67  A    between atoms: _163  and  _166
REMARK   68  A    between atoms: _166  and  _167
REMARK   69  A    between atoms: _167  and  _168
REMARK   70  A    between atoms: _173  and  _175
REMARK   71  A    between atoms: _175  and  _176
REMARK   72  A    between atoms: _175  and  _178
REMARK   73  A    between atoms: _178  and  _179
REMARK   74  A    between atoms: _181  and  _183
REMARK   75  A    between atoms: _183  and  _184
REMARK   76  A    between atoms: _183  and  _186
REMARK   77  A    between atoms: _186  and  _187
REMARK   78  A    between atoms: _197  and  _199
REMARK   79  A    between atoms: _199  and  _200
REMARK   80  A    between atoms: _199  and  _202
REMARK   81  A    between atoms: _202  and  _203
REMARK   82  A    between atoms: _203  and  _204
REMARK   83  A    between atoms: _204  and  _205
REMARK   84  A    between atoms: _205  and  _206
REMARK   85  A    between atoms: _210  and  _212
REMARK   86  A    between atoms: _212  and  _213
REMARK   87  A    between atoms: _212  and  _215
REMARK   88  A    between atoms: _215  and  _216
REMARK   89  A    between atoms: _216  and  _217
REMARK   90  A    between atoms: _217  and  _218
REMARK   91  A    between atoms: _227  and  _229
REMARK   92  A    between atoms: _229  and  _230
REMARK   93  A    between atoms: _229  and  _232
REMARK   94  A    between atoms: _232  and  _233
REMARK   95  A    between atoms: _236  and  _238
REMARK   96  A    between atoms: _238  and  _239
REMARK   97  A    between atoms: _238  and  _241
REMARK   98  A    between atoms: _241  and  _242
REMARK   99  A    between atoms: _246  and  _247
REMARK  100  A    between atoms: _252  and  _254
REMARK  101  A    between atoms: _254  and  _255
REMARK  102  A    between atoms: _254  and  _257
REMARK  103  A    between atoms: _257  and  _258
REMARK  104  A    between atoms: _258  and  _259
REMARK  105  A    between atoms: _262  and  _264
REMARK  106  A    between atoms: _264  and  _265
REMARK  107  A    between atoms: _264  and  _267
REMARK  108  A    between atoms: _267  and  _268
REMARK  109  A    between atoms: _273  and  _275
REMARK  110  A    between atoms: _275  and  _276
REMARK  111  A    between atoms: _275  and  _278
REMARK  112  A    between atoms: _278  and  _279
REMARK  113  A    between atoms: _279  and  _280
REMARK  114  A    between atoms: _280  and  _281
REMARK  115  A    between atoms: _281  and  _282
REMARK  116  A    between atoms: _286  and  _288
REMARK  117  A    between atoms: _288  and  _289
REMARK  118  A    between atoms: _288  and  _291
REMARK  119  A    between atoms: _291  and  _292
REMARK  120  A    between atoms: _302  and  _304
REMARK  121  A    between atoms: _304  and  _305
REMARK  122  A    between atoms: _304  and  _307
REMARK  123  A    between atoms: _307  and  _308
REMARK                            x       y       z     vdW  Elec       q    Type
REMARK                         _______ _______ _______ _____ _____    ______ ____
ROOT
ATOM      1  O   HOH     1      92.604  57.890  16.318  0.00  0.00    +0.000 OA
ENDROOT
TORSDOF 0
