REMARK  Name = ../refined-set-2016/1b1h/1b1h_pocket.pdb
REMARK  296 active torsions:
REMARK  status: ('A' for Active; 'I' for Inactive)
REMARK    1  A    between atoms: _1  and  _3
REMARK    2  A    between atoms: _3  and  _4
REMARK    3  A    between atoms: _3  and  _6
REMARK    4  A    between atoms: _6  and  _7
REMARK    5  A    between atoms: _12  and  _14
REMARK    6  A    between atoms: _14  and  _15
REMARK    7  A    between atoms: _17  and  _19
REMARK    8  A    between atoms: _19  and  _20
REMARK    9  A    between atoms: _19  and  _22
REMARK   10  A    between atoms: _22  and  _23
REMARK   11  A    between atoms: _25  and  _27
REMARK   12  A    between atoms: _27  and  _28
REMARK   13  A    between atoms: _27  and  _30
REMARK   14  A    between atoms: _30  and  _31
REMARK   15  A    between atoms: _31  and  _32
REMARK   16  A    between atoms: _37  and  _39
REMARK   17  A    between atoms: _39  and  _40
REMARK   18  A    between atoms: _39  and  _42
REMARK   19  A    between atoms: _42  and  _43
REMARK   20  A    between atoms: _46  and  _48
REMARK   21  A    between atoms: _48  and  _49
REMARK   22  A    between atoms: _48  and  _51
REMARK   23  A    between atoms: _51  and  _52
REMARK   24  A    between atoms: _52  and  _53
REMARK   25  A    between atoms: _56  and  _58
REMARK   26  A    between atoms: _58  and  _59
REMARK   27  A    between atoms: _61  and  _63
REMARK   28  A    between atoms: _63  and  _64
REMARK   29  A    between atoms: _63  and  _66
REMARK   30  A    between atoms: _70  and  _71
REMARK   31  A    between atoms: _76  and  _78
REMARK   32  A    between atoms: _78  and  _79
REMARK   33  A    between atoms: _78  and  _81
REMARK   34  A    between atoms: _81  and  _82
REMARK   35  A    between atoms: _82  and  _83
REMARK   36  A    between atoms: _86  and  _88
REMARK   37  A    between atoms: _88  and  _89
REMARK   38  A    between atoms: _88  and  _91
REMARK   39  A    between atoms: _91  and  _92
REMARK   40  A    between atoms: _94  and  _96
REMARK   41  A    between atoms: _96  and  _97
REMARK   42  A    between atoms: _96  and  _99
REMARK   43  A    between atoms: _99  and  _100
REMARK   44  A    between atoms: _105  and  _107
REMARK   45  A    between atoms: _107  and  _108
REMARK   46  A    between atoms: _107  and  _110
REMARK   47  A    between atoms: _110  and  _111
REMARK   48  A    between atoms: _111  and  _112
REMARK   49  A    between atoms: _112  and  _113
REMARK   50  A    between atoms: _123  and  _124
REMARK   51  A    between atoms: _129  and  _131
REMARK   52  A    between atoms: _131  and  _132
REMARK   53  A    between atoms: _131  and  _134
REMARK   54  A    between atoms: _134  and  _135
REMARK   55  A    between atoms: _140  and  _141
REMARK   56  A    between atoms: _143  and  _145
REMARK   57  A    between atoms: _145  and  _146
REMARK   58  A    between atoms: _145  and  _148
REMARK   59  A    between atoms: _148  and  _149
REMARK   60  A    between atoms: _154  and  _155
REMARK   61  A    between atoms: _157  and  _159
REMARK   62  A    between atoms: _159  and  _160
REMARK   63  A    between atoms: _159  and  _162
REMARK   64  A    between atoms: _165  and  _167
REMARK   65  A    between atoms: _167  and  _168
REMARK   66  A    between atoms: _167  and  _170
REMARK   67  A    between atoms: _170  and  _171
REMARK   68  A    between atoms: _177  and  _178
REMARK   69  A    between atoms: _183  and  _185
REMARK   70  A    between atoms: _185  and  _186
REMARK   71  A    between atoms: _185  and  _188
REMARK   72  A    between atoms: _188  and  _189
REMARK   73  A    between atoms: _191  and  _193
REMARK   74  A    between atoms: _193  and  _194
REMARK   75  A    between atoms: _193  and  _196
REMARK   76  A    between atoms: _196  and  _197
REMARK   77  A    between atoms: _197  and  _198
REMARK   78  A    between atoms: _201  and  _203
REMARK   79  A    between atoms: _203  and  _204
REMARK   80  A    between atoms: _203  and  _206
REMARK   81  A    between atoms: _206  and  _207
REMARK   82  A    between atoms: _212  and  _213
REMARK   83  A    between atoms: _215  and  _217
REMARK   84  A    between atoms: _217  and  _218
REMARK   85  A    between atoms: _217  and  _220
REMARK   86  A    between atoms: _220  and  _221
REMARK   87  A    between atoms: _226  and  _228
REMARK   88  A    between atoms: _228  and  _229
REMARK   89  A    between atoms: _228  and  _231
REMARK   90  A    between atoms: _231  and  _232
REMARK   91  A    between atoms: _237  and  _239
REMARK   92  A    between atoms: _239  and  _240
REMARK   93  A    between atoms: _239  and  _242
REMARK   94  A    between atoms: _242  and  _243
REMARK   95  A    between atoms: _243  and  _244
REMARK   96  A    between atoms: _246  and  _248
REMARK   97  A    between atoms: _248  and  _249
REMARK   98  A    between atoms: _248  and  _251
REMARK   99  A    between atoms: _251  and  _252
REMARK  100  A    between atoms: _257  and  _258
REMARK  101  A    between atoms: _260  and  _262
REMARK  102  A    between atoms: _262  and  _263
REMARK  103  A    between atoms: _262  and  _265
REMARK  104  A    between atoms: _265  and  _266
REMARK  105  A    between atoms: _269  and  _271
REMARK  106  A    between atoms: _271  and  _272
REMARK  107  A    between atoms: _271  and  _274
REMARK  108  A    between atoms: _274  and  _275
REMARK  109  A    between atoms: _275  and  _558
REMARK  110  A    between atoms: _276  and  _278
REMARK  111  A    between atoms: _278  and  _279
REMARK  112  A    between atoms: _278  and  _281
REMARK  113  A    between atoms: _281  and  _282
REMARK  114  A    between atoms: _285  and  _287
REMARK  115  A    between atoms: _287  and  _288
REMARK  116  A    between atoms: _287  and  _290
REMARK  117  A    between atoms: _290  and  _291
REMARK  118  A    between atoms: _296  and  _297
REMARK  119  A    between atoms: _299  and  _301
REMARK  120  A    between atoms: _301  and  _302
REMARK  121  A    between atoms: _301  and  _304
REMARK  122  A    between atoms: _304  and  _305
REMARK  123  A    between atoms: _310  and  _311
REMARK  124  A    between atoms: _313  and  _315
REMARK  125  A    between atoms: _315  and  _316
REMARK  126  A    between atoms: _315  and  _318
REMARK  127  A    between atoms: _318  and  _319
REMARK  128  A    between atoms: _319  and  _320
REMARK  129  A    between atoms: _323  and  _325
REMARK  130  A    between atoms: _325  and  _326
REMARK  131  A    between atoms: _325  and  _328
REMARK  132  A    between atoms: _328  and  _329
REMARK  133  A    between atoms: _334  and  _335
REMARK  134  A    between atoms: _337  and  _339
REMARK  135  A    between atoms: _339  and  _340
REMARK  136  A    between atoms: _339  and  _342
REMARK  137  A    between atoms: _342  and  _343
REMARK  138  A    between atoms: _348  and  _350
REMARK  139  A    between atoms: _350  and  _351
REMARK  140  A    between atoms: _350  and  _353
REMARK  141  A    between atoms: _353  and  _354
REMARK  142  A    between atoms: _357  and  _359
REMARK  143  A    between atoms: _359  and  _360
REMARK  144  A    between atoms: _359  and  _362
REMARK  145  A    between atoms: _362  and  _363
REMARK  146  A    between atoms: _368  and  _370
REMARK  147  A    between atoms: _370  and  _371
REMARK  148  A    between atoms: _370  and  _373
REMARK  149  A    between atoms: _373  and  _374
REMARK  150  A    between atoms: _384  and  _386
REMARK  151  A    between atoms: _386  and  _387
REMARK  152  A    between atoms: _386  and  _389
REMARK  153  A    between atoms: _389  and  _390
REMARK  154  A    between atoms: _390  and  _391
REMARK  155  A    between atoms: _391  and  _392
REMARK  156  A    between atoms: _392  and  _393
REMARK  157  A    between atoms: _397  and  _399
REMARK  158  A    between atoms: _399  and  _400
REMARK  159  A    between atoms: _399  and  _402
REMARK  160  A    between atoms: _402  and  _403
REMARK  161  A    between atoms: _406  and  _408
REMARK  162  A    between atoms: _408  and  _409
REMARK  163  A    between atoms: _408  and  _411
REMARK  164  A    between atoms: _411  and  _412
REMARK  165  A    between atoms: _418  and  _420
REMARK  166  A    between atoms: _420  and  _421
REMARK  167  A    between atoms: _420  and  _423
REMARK  168  A    between atoms: _423  and  _424
REMARK  169  A    between atoms: _427  and  _429
REMARK  170  A    between atoms: _429  and  _430
REMARK  171  A    between atoms: _429  and  _432
REMARK  172  A    between atoms: _432  and  _433
REMARK  173  A    between atoms: _436  and  _438
REMARK  174  A    between atoms: _438  and  _439
REMARK  175  A    between atoms: _438  and  _441
REMARK  176  A    between atoms: _441  and  _442
REMARK  177  A    between atoms: _445  and  _447
REMARK  178  A    between atoms: _447  and  _448
REMARK  179  A    between atoms: _447  and  _450
REMARK  180  A    between atoms: _450  and  _451
REMARK  181  A    between atoms: _451  and  _452
REMARK  182  A    between atoms: _452  and  _453
REMARK  183  A    between atoms: _462  and  _464
REMARK  184  A    between atoms: _464  and  _465
REMARK  185  A    between atoms: _464  and  _467
REMARK  186  A    between atoms: _467  and  _468
REMARK  187  A    between atoms: _473  and  _475
REMARK  188  A    between atoms: _475  and  _476
REMARK  189  A    between atoms: _475  and  _478
REMARK  190  A    between atoms: _478  and  _479
REMARK  191  A    between atoms: _479  and  _480
REMARK  192  A    between atoms: _485  and  _487
REMARK  193  A    between atoms: _487  and  _488
REMARK  194  A    between atoms: _490  and  _492
REMARK  195  A    between atoms: _492  and  _493
REMARK  196  A    between atoms: _492  and  _495
REMARK  197  A    between atoms: _495  and  _496
REMARK  198  A    between atoms: _502  and  _504
REMARK  199  A    between atoms: _504  and  _505
REMARK  200  A    between atoms: _508  and  _510
REMARK  201  A    between atoms: _510  and  _511
REMARK  202  A    between atoms: _510  and  _513
REMARK  203  A    between atoms: _513  and  _514
REMARK  204  A    between atoms: _514  and  _515
REMARK  205  A    between atoms: _515  and  _516
REMARK  206  A    between atoms: _525  and  _527
REMARK  207  A    between atoms: _527  and  _528
REMARK  208  A    between atoms: _531  and  _533
REMARK  209  A    between atoms: _533  and  _534
REMARK  210  A    between atoms: _536  and  _538
REMARK  211  A    between atoms: _538  and  _539
REMARK  212  A    between atoms: _538  and  _541
REMARK  213  A    between atoms: _541  and  _542
REMARK  214  A    between atoms: _552  and  _554
REMARK  215  A    between atoms: _554  and  _555
REMARK  216  A    between atoms: _554  and  _557
REMARK  217  A    between atoms: _557  and  _558
REMARK  218  A    between atoms: _559  and  _561
REMARK  219  A    between atoms: _561  and  _562
REMARK  220  A    between atoms: _565  and  _567
REMARK  221  A    between atoms: _567  and  _568
REMARK  222  A    between atoms: _567  and  _570
REMARK  223  A    between atoms: _570  and  _571
REMARK  224  A    between atoms: _574  and  _576
REMARK  225  A    between atoms: _576  and  _577
REMARK  226  A    between atoms: _576  and  _579
REMARK  227  A    between atoms: _579  and  _580
REMARK  228  A    between atoms: _585  and  _586
REMARK  229  A    between atoms: _588  and  _590
REMARK  230  A    between atoms: _590  and  _591
REMARK  231  A    between atoms: _590  and  _593
REMARK  232  A    between atoms: _593  and  _594
REMARK  233  A    between atoms: _596  and  _598
REMARK  234  A    between atoms: _598  and  _599
REMARK  235  A    between atoms: _598  and  _601
REMARK  236  A    between atoms: _601  and  _602
REMARK  237  A    between atoms: _608  and  _610
REMARK  238  A    between atoms: _610  and  _611
REMARK  239  A    between atoms: _610  and  _613
REMARK  240  A    between atoms: _613  and  _614
REMARK  241  A    between atoms: _617  and  _619
REMARK  242  A    between atoms: _619  and  _620
REMARK  243  A    between atoms: _619  and  _622
REMARK  244  A    between atoms: _622  and  _623
REMARK  245  A    between atoms: _625  and  _627
REMARK  246  A    between atoms: _627  and  _628
REMARK  247  A    between atoms: _627  and  _630
REMARK  248  A    between atoms: _630  and  _631
REMARK  249  A    between atoms: _636  and  _638
REMARK  250  A    between atoms: _638  and  _639
REMARK  251  A    between atoms: _638  and  _641
REMARK  252  A    between atoms: _641  and  _642
REMARK  253  A    between atoms: _647  and  _649
REMARK  254  A    between atoms: _649  and  _650
REMARK  255  A    between atoms: _649  and  _652
REMARK  256  A    between atoms: _652  and  _653
REMARK  257  A    between atoms: _656  and  _658
REMARK  258  A    between atoms: _658  and  _659
REMARK  259  A    between atoms: _662  and  _664
REMARK  260  A    between atoms: _664  and  _665
REMARK  261  A    between atoms: _664  and  _667
REMARK  262  A    between atoms: _667  and  _668
REMARK  263  A    between atoms: _673  and  _674
REMARK  264  A    between atoms: _676  and  _678
REMARK  265  A    between atoms: _678  and  _679
REMARK  266  A    between atoms: _678  and  _681
REMARK  267  A    between atoms: _681  and  _682
REMARK  268  A    between atoms: _687  and  _688
REMARK  269  A    between atoms: _690  and  _692
REMARK  270  A    between atoms: _692  and  _693
REMARK  271  A    between atoms: _692  and  _695
REMARK  272  A    between atoms: _698  and  _700
REMARK  273  A    between atoms: _700  and  _701
REMARK  274  A    between atoms: _700  and  _703
REMARK  275  A    between atoms: _703  and  _704
REMARK  276  A    between atoms: _709  and  _711
REMARK  277  A    between atoms: _711  and  _712
REMARK  278  A    between atoms: _715  and  _717
REMARK  279  A    between atoms: _717  and  _718
REMARK  280  A    between atoms: _717  and  _720
REMARK  281  A    between atoms: _720  and  _721
REMARK  282  A    between atoms: _721  and  _722
REMARK  283  A    between atoms: _722  and  _723
REMARK  284  A    between atoms: _732  and  _734
REMARK  285  A    between atoms: _734  and  _735
REMARK  286  A    between atoms: _734  and  _737
REMARK  287  A    between atoms: _737  and  _738
REMARK  288  A    between atoms: _741  and  _743
REMARK  289  A    between atoms: _743  and  _744
REMARK  290  A    between atoms: _743  and  _746
REMARK  291  A    between atoms: _746  and  _747
REMARK  292  A    between atoms: _750  and  _752
REMARK  293  A    between atoms: _752  and  _753
REMARK  294  A    between atoms: _752  and  _755
REMARK  295  A    between atoms: _755  and  _756
REMARK  296  A    between atoms: _797  and  _800
REMARK                            x       y       z     vdW  Elec       q    Type
REMARK                         _______ _______ _______ _____ _____    ______ ____
ROOT
ATOM      1  C   ASN A   1      -3.227  23.785   6.723  0.00  0.00    +0.239 C 
ATOM      2  O   ASN A   1      -2.174  23.878   7.360  0.00  0.00    -0.274 OA
ATOM      3  N   GLY A   2      -4.411  24.078   7.241  0.00  0.00    -0.296 N 
ATOM      4  H   GLY A   2      -5.254  23.978   6.640  0.00  0.00    +0.150 HD
ENDROOT
BRANCH   1   5
ATOM      5  CA  ASN A   1      -3.225  23.200   5.319  0.00  0.00    +0.154 C 
BRANCH   5   6
ATOM      6  N   ASN A   1      -4.439  23.439   4.558  0.00  0.00    -0.238 NA
ATOM      7  H   ASN A   1      -4.780  24.414   4.435  0.00  0.00    +0.142 HD
ENDBRANCH   5   6
BRANCH   5   8
ATOM      8  CB  ASN A   1      -2.051  23.808   4.529  0.00  0.00    +0.111 C 
BRANCH   8   9
ATOM      9  CG  ASN A   1      -0.697  23.233   4.911  0.00  0.00    +0.221 C 
ATOM     10  OD1 ASN A   1      -0.597  22.023   5.178  0.00  0.00    -0.275 OA
ATOM     11  ND2 ASN A   1       0.343  24.069   4.896  0.00  0.00    -0.329 N 
ATOM     12 HD21 ASN A   1       1.297  23.717   5.115  0.00  0.00    +0.145 HD
ATOM     13 HD22 ASN A   1       0.200  25.073   4.665  0.00  0.00    +0.145 HD
ENDBRANCH   8   9
ENDBRANCH   5   8
ENDBRANCH   1   5
BRANCH   3  14
ATOM     14  CA  GLY A   2      -4.587  24.534   8.615  0.00  0.00    +0.176 C 
BRANCH  14  15
ATOM     15  C   GLY A   2      -4.265  25.952   8.966  0.00  0.00    +0.243 C 
ATOM     16  O   GLY A   2      -4.956  26.590   9.780  0.00  0.00    -0.273 OA
ATOM     17  N   SER A   3      -3.200  26.533   8.442  0.00  0.00    -0.296 N 
ATOM     18  H   SER A   3      -2.633  25.992   7.758  0.00  0.00    +0.150 HD
BRANCH  17  19
ATOM     19  CA  SER A   3      -2.779  27.872   8.764  0.00  0.00    +0.166 C 
BRANCH  19  20
ATOM     20  C   SER A   3      -1.695  28.332   7.787  0.00  0.00    +0.229 C 
ATOM     21  O   SER A   3      -1.257  27.537   6.957  0.00  0.00    -0.286 OA
ENDBRANCH  19  20
BRANCH  19  22
ATOM     22  CB  SER A   3      -2.194  27.882  10.194  0.00  0.00    +0.165 C 
BRANCH  22  23
ATOM     23  OG  SER A   3      -1.255  26.803  10.290  0.00  0.00    -0.380 OA
ATOM     24  H   SER A   3      -1.719  25.946  10.114  0.00  0.00    +0.211 HD
ENDBRANCH  22  23
ENDBRANCH  19  22
ENDBRANCH  17  19
ENDBRANCH  14  15
ENDBRANCH   3  14
TORSDOF 10
REMARK  Name = ../refined-set-2016/1b1h/1b1h_pocket.pdb
REMARK  296 active torsions:
REMARK  status: ('A' for Active; 'I' for Inactive)
REMARK    1  A    between atoms: _1  and  _3
REMARK    2  A    between atoms: _3  and  _4
REMARK    3  A    between atoms: _3  and  _6
REMARK    4  A    between atoms: _6  and  _7
REMARK    5  A    between atoms: _12  and  _14
REMARK    6  A    between atoms: _14  and  _15
REMARK    7  A    between atoms: _17  and  _19
REMARK    8  A    between atoms: _19  and  _20
REMARK    9  A    between atoms: _19  and  _22
REMARK   10  A    between atoms: _22  and  _23
REMARK   11  A    between atoms: _25  and  _27
REMARK   12  A    between atoms: _27  and  _28
REMARK   13  A    between atoms: _27  and  _30
REMARK   14  A    between atoms: _30  and  _31
REMARK   15  A    between atoms: _31  and  _32
REMARK   16  A    between atoms: _37  and  _39
REMARK   17  A    between atoms: _39  and  _40
REMARK   18  A    between atoms: _39  and  _42
REMARK   19  A    between atoms: _42  and  _43
REMARK   20  A    between atoms: _46  and  _48
REMARK   21  A    between atoms: _48  and  _49
REMARK   22  A    between atoms: _48  and  _51
REMARK   23  A    between atoms: _51  and  _52
REMARK   24  A    between atoms: _52  and  _53
REMARK   25  A    between atoms: _56  and  _58
REMARK   26  A    between atoms: _58  and  _59
REMARK   27  A    between atoms: _61  and  _63
REMARK   28  A    between atoms: _63  and  _64
REMARK   29  A    between atoms: _63  and  _66
REMARK   30  A    between atoms: _70  and  _71
REMARK   31  A    between atoms: _76  and  _78
REMARK   32  A    between atoms: _78  and  _79
REMARK   33  A    between atoms: _78  and  _81
REMARK   34  A    between atoms: _81  and  _82
REMARK   35  A    between atoms: _82  and  _83
REMARK   36  A    between atoms: _86  and  _88
REMARK   37  A    between atoms: _88  and  _89
REMARK   38  A    between atoms: _88  and  _91
REMARK   39  A    between atoms: _91  and  _92
REMARK   40  A    between atoms: _94  and  _96
REMARK   41  A    between atoms: _96  and  _97
REMARK   42  A    between atoms: _96  and  _99
REMARK   43  A    between atoms: _99  and  _100
REMARK   44  A    between atoms: _105  and  _107
REMARK   45  A    between atoms: _107  and  _108
REMARK   46  A    between atoms: _107  and  _110
REMARK   47  A    between atoms: _110  and  _111
REMARK   48  A    between atoms: _111  and  _112
REMARK   49  A    between atoms: _112  and  _113
REMARK   50  A    between atoms: _123  and  _124
REMARK   51  A    between atoms: _129  and  _131
REMARK   52  A    between atoms: _131  and  _132
REMARK   53  A    between atoms: _131  and  _134
REMARK   54  A    between atoms: _134  and  _135
REMARK   55  A    between atoms: _140  and  _141
REMARK   56  A    between atoms: _143  and  _145
REMARK   57  A    between atoms: _145  and  _146
REMARK   58  A    between atoms: _145  and  _148
REMARK   59  A    between atoms: _148  and  _149
REMARK   60  A    between atoms: _154  and  _155
REMARK   61  A    between atoms: _157  and  _159
REMARK   62  A    between atoms: _159  and  _160
REMARK   63  A    between atoms: _159  and  _162
REMARK   64  A    between atoms: _165  and  _167
REMARK   65  A    between atoms: _167  and  _168
REMARK   66  A    between atoms: _167  and  _170
REMARK   67  A    between atoms: _170  and  _171
REMARK   68  A    between atoms: _177  and  _178
REMARK   69  A    between atoms: _183  and  _185
REMARK   70  A    between atoms: _185  and  _186
REMARK   71  A    between atoms: _185  and  _188
REMARK   72  A    between atoms: _188  and  _189
REMARK   73  A    between atoms: _191  and  _193
REMARK   74  A    between atoms: _193  and  _194
REMARK   75  A    between atoms: _193  and  _196
REMARK   76  A    between atoms: _196  and  _197
REMARK   77  A    between atoms: _197  and  _198
REMARK   78  A    between atoms: _201  and  _203
REMARK   79  A    between atoms: _203  and  _204
REMARK   80  A    between atoms: _203  and  _206
REMARK   81  A    between atoms: _206  and  _207
REMARK   82  A    between atoms: _212  and  _213
REMARK   83  A    between atoms: _215  and  _217
REMARK   84  A    between atoms: _217  and  _218
REMARK   85  A    between atoms: _217  and  _220
REMARK   86  A    between atoms: _220  and  _221
REMARK   87  A    between atoms: _226  and  _228
REMARK   88  A    between atoms: _228  and  _229
REMARK   89  A    between atoms: _228  and  _231
REMARK   90  A    between atoms: _231  and  _232
REMARK   91  A    between atoms: _237  and  _239
REMARK   92  A    between atoms: _239  and  _240
REMARK   93  A    between atoms: _239  and  _242
REMARK   94  A    between atoms: _242  and  _243
REMARK   95  A    between atoms: _243  and  _244
REMARK   96  A    between atoms: _246  and  _248
REMARK   97  A    between atoms: _248  and  _249
REMARK   98  A    between atoms: _248  and  _251
REMARK   99  A    between atoms: _251  and  _252
REMARK  100  A    between atoms: _257  and  _258
REMARK  101  A    between atoms: _260  and  _262
REMARK  102  A    between atoms: _262  and  _263
REMARK  103  A    between atoms: _262  and  _265
REMARK  104  A    between atoms: _265  and  _266
REMARK  105  A    between atoms: _269  and  _271
REMARK  106  A    between atoms: _271  and  _272
REMARK  107  A    between atoms: _271  and  _274
REMARK  108  A    between atoms: _274  and  _275
REMARK  109  A    between atoms: _275  and  _558
REMARK  110  A    between atoms: _276  and  _278
REMARK  111  A    between atoms: _278  and  _279
REMARK  112  A    between atoms: _278  and  _281
REMARK  113  A    between atoms: _281  and  _282
REMARK  114  A    between atoms: _285  and  _287
REMARK  115  A    between atoms: _287  and  _288
REMARK  116  A    between atoms: _287  and  _290
REMARK  117  A    between atoms: _290  and  _291
REMARK  118  A    between atoms: _296  and  _297
REMARK  119  A    between atoms: _299  and  _301
REMARK  120  A    between atoms: _301  and  _302
REMARK  121  A    between atoms: _301  and  _304
REMARK  122  A    between atoms: _304  and  _305
REMARK  123  A    between atoms: _310  and  _311
REMARK  124  A    between atoms: _313  and  _315
REMARK  125  A    between atoms: _315  and  _316
REMARK  126  A    between atoms: _315  and  _318
REMARK  127  A    between atoms: _318  and  _319
REMARK  128  A    between atoms: _319  and  _320
REMARK  129  A    between atoms: _323  and  _325
REMARK  130  A    between atoms: _325  and  _326
REMARK  131  A    between atoms: _325  and  _328
REMARK  132  A    between atoms: _328  and  _329
REMARK  133  A    between atoms: _334  and  _335
REMARK  134  A    between atoms: _337  and  _339
REMARK  135  A    between atoms: _339  and  _340
REMARK  136  A    between atoms: _339  and  _342
REMARK  137  A    between atoms: _342  and  _343
REMARK  138  A    between atoms: _348  and  _350
REMARK  139  A    between atoms: _350  and  _351
REMARK  140  A    between atoms: _350  and  _353
REMARK  141  A    between atoms: _353  and  _354
REMARK  142  A    between atoms: _357  and  _359
REMARK  143  A    between atoms: _359  and  _360
REMARK  144  A    between atoms: _359  and  _362
REMARK  145  A    between atoms: _362  and  _363
REMARK  146  A    between atoms: _368  and  _370
REMARK  147  A    between atoms: _370  and  _371
REMARK  148  A    between atoms: _370  and  _373
REMARK  149  A    between atoms: _373  and  _374
REMARK  150  A    between atoms: _384  and  _386
REMARK  151  A    between atoms: _386  and  _387
REMARK  152  A    between atoms: _386  and  _389
REMARK  153  A    between atoms: _389  and  _390
REMARK  154  A    between atoms: _390  and  _391
REMARK  155  A    between atoms: _391  and  _392
REMARK  156  A    between atoms: _392  and  _393
REMARK  157  A    between atoms: _397  and  _399
REMARK  158  A    between atoms: _399  and  _400
REMARK  159  A    between atoms: _399  and  _402
REMARK  160  A    between atoms: _402  and  _403
REMARK  161  A    between atoms: _406  and  _408
REMARK  162  A    between atoms: _408  and  _409
REMARK  163  A    between atoms: _408  and  _411
REMARK  164  A    between atoms: _411  and  _412
REMARK  165  A    between atoms: _418  and  _420
REMARK  166  A    between atoms: _420  and  _421
REMARK  167  A    between atoms: _420  and  _423
REMARK  168  A    between atoms: _423  and  _424
REMARK  169  A    between atoms: _427  and  _429
REMARK  170  A    between atoms: _429  and  _430
REMARK  171  A    between atoms: _429  and  _432
REMARK  172  A    between atoms: _432  and  _433
REMARK  173  A    between atoms: _436  and  _438
REMARK  174  A    between atoms: _438  and  _439
REMARK  175  A    between atoms: _438  and  _441
REMARK  176  A    between atoms: _441  and  _442
REMARK  177  A    between atoms: _445  and  _447
REMARK  178  A    between atoms: _447  and  _448
REMARK  179  A    between atoms: _447  and  _450
REMARK  180  A    between atoms: _450  and  _451
REMARK  181  A    between atoms: _451  and  _452
REMARK  182  A    between atoms: _452  and  _453
REMARK  183  A    between atoms: _462  and  _464
REMARK  184  A    between atoms: _464  and  _465
REMARK  185  A    between atoms: _464  and  _467
REMARK  186  A    between atoms: _467  and  _468
REMARK  187  A    between atoms: _473  and  _475
REMARK  188  A    between atoms: _475  and  _476
REMARK  189  A    between atoms: _475  and  _478
REMARK  190  A    between atoms: _478  and  _479
REMARK  191  A    between atoms: _479  and  _480
REMARK  192  A    between atoms: _485  and  _487
REMARK  193  A    between atoms: _487  and  _488
REMARK  194  A    between atoms: _490  and  _492
REMARK  195  A    between atoms: _492  and  _493
REMARK  196  A    between atoms: _492  and  _495
REMARK  197  A    between atoms: _495  and  _496
REMARK  198  A    between atoms: _502  and  _504
REMARK  199  A    between atoms: _504  and  _505
REMARK  200  A    between atoms: _508  and  _510
REMARK  201  A    between atoms: _510  and  _511
REMARK  202  A    between atoms: _510  and  _513
REMARK  203  A    between atoms: _513  and  _514
REMARK  204  A    between atoms: _514  and  _515
REMARK  205  A    between atoms: _515  and  _516
REMARK  206  A    between atoms: _525  and  _527
REMARK  207  A    between atoms: _527  and  _528
REMARK  208  A    between atoms: _531  and  _533
REMARK  209  A    between atoms: _533  and  _534
REMARK  210  A    between atoms: _536  and  _538
REMARK  211  A    between atoms: _538  and  _539
REMARK  212  A    between atoms: _538  and  _541
REMARK  213  A    between atoms: _541  and  _542
REMARK  214  A    between atoms: _552  and  _554
REMARK  215  A    between atoms: _554  and  _555
REMARK  216  A    between atoms: _554  and  _557
REMARK  217  A    between atoms: _557  and  _558
REMARK  218  A    between atoms: _559  and  _561
REMARK  219  A    between atoms: _561  and  _562
REMARK  220  A    between atoms: _565  and  _567
REMARK  221  A    between atoms: _567  and  _568
REMARK  222  A    between atoms: _567  and  _570
REMARK  223  A    between atoms: _570  and  _571
REMARK  224  A    between atoms: _574  and  _576
REMARK  225  A    between atoms: _576  and  _577
REMARK  226  A    between atoms: _576  and  _579
REMARK  227  A    between atoms: _579  and  _580
REMARK  228  A    between atoms: _585  and  _586
REMARK  229  A    between atoms: _588  and  _590
REMARK  230  A    between atoms: _590  and  _591
REMARK  231  A    between atoms: _590  and  _593
REMARK  232  A    between atoms: _593  and  _594
REMARK  233  A    between atoms: _596  and  _598
REMARK  234  A    between atoms: _598  and  _599
REMARK  235  A    between atoms: _598  and  _601
REMARK  236  A    between atoms: _601  and  _602
REMARK  237  A    between atoms: _608  and  _610
REMARK  238  A    between atoms: _610  and  _611
REMARK  239  A    between atoms: _610  and  _613
REMARK  240  A    between atoms: _613  and  _614
REMARK  241  A    between atoms: _617  and  _619
REMARK  242  A    between atoms: _619  and  _620
REMARK  243  A    between atoms: _619  and  _622
REMARK  244  A    between atoms: _622  and  _623
REMARK  245  A    between atoms: _625  and  _627
REMARK  246  A    between atoms: _627  and  _628
REMARK  247  A    between atoms: _627  and  _630
REMARK  248  A    between atoms: _630  and  _631
REMARK  249  A    between atoms: _636  and  _638
REMARK  250  A    between atoms: _638  and  _639
REMARK  251  A    between atoms: _638  and  _641
REMARK  252  A    between atoms: _641  and  _642
REMARK  253  A    between atoms: _647  and  _649
REMARK  254  A    between atoms: _649  and  _650
REMARK  255  A    between atoms: _649  and  _652
REMARK  256  A    between atoms: _652  and  _653
REMARK  257  A    between atoms: _656  and  _658
REMARK  258  A    between atoms: _658  and  _659
REMARK  259  A    between atoms: _662  and  _664
REMARK  260  A    between atoms: _664  and  _665
REMARK  261  A    between atoms: _664  and  _667
REMARK  262  A    between atoms: _667  and  _668
REMARK  263  A    between atoms: _673  and  _674
REMARK  264  A    between atoms: _676  and  _678
REMARK  265  A    between atoms: _678  and  _679
REMARK  266  A    between atoms: _678  and  _681
REMARK  267  A    between atoms: _681  and  _682
REMARK  268  A    between atoms: _687  and  _688
REMARK  269  A    between atoms: _690  and  _692
REMARK  270  A    between atoms: _692  and  _693
REMARK  271  A    between atoms: _692  and  _695
REMARK  272  A    between atoms: _698  and  _700
REMARK  273  A    between atoms: _700  and  _701
REMARK  274  A    between atoms: _700  and  _703
REMARK  275  A    between atoms: _703  and  _704
REMARK  276  A    between atoms: _709  and  _711
REMARK  277  A    between atoms: _711  and  _712
REMARK  278  A    between atoms: _715  and  _717
REMARK  279  A    between atoms: _717  and  _718
REMARK  280  A    between atoms: _717  and  _720
REMARK  281  A    between atoms: _720  and  _721
REMARK  282  A    between atoms: _721  and  _722
REMARK  283  A    between atoms: _722  and  _723
REMARK  284  A    between atoms: _732  and  _734
REMARK  285  A    between atoms: _734  and  _735
REMARK  286  A    between atoms: _734  and  _737
REMARK  287  A    between atoms: _737  and  _738
REMARK  288  A    between atoms: _741  and  _743
REMARK  289  A    between atoms: _743  and  _744
REMARK  290  A    between atoms: _743  and  _746
REMARK  291  A    between atoms: _746  and  _747
REMARK  292  A    between atoms: _750  and  _752
REMARK  293  A    between atoms: _752  and  _753
REMARK  294  A    between atoms: _752  and  _755
REMARK  295  A    between atoms: _755  and  _756
REMARK  296  A    between atoms: _797  and  _800
REMARK                            x       y       z     vdW  Elec       q    Type
REMARK                         _______ _______ _______ _____ _____    ______ ____
ROOT
ATOM      1  CB  GLN A   1       6.814  28.884  10.440  0.00  0.00    +0.035 C 
ENDROOT
BRANCH   1   2
ATOM      2  CA  GLN A   1       5.975  29.719   9.470  0.00  0.00    +0.134 C 
BRANCH   2   3
ATOM      3  N   GLN A   1       4.941  28.934   8.850  0.00  0.00    -0.239 NA
ATOM      4  H   GLN A   1       4.840  27.937   9.127  0.00  0.00    +0.142 HD
ENDBRANCH   2   3
BRANCH   2   5
ATOM      5  C   GLN A   1       6.981  30.209   8.421  0.00  0.00    +0.224 C 
ATOM      6  O   GLN A   1       7.458  31.341   8.476  0.00  0.00    -0.287 OA
ENDBRANCH   2   5
ENDBRANCH   1   2
BRANCH   1   7
ATOM      7  CG  GLN A   1       6.202  28.536  11.780  0.00  0.00    +0.087 C 
BRANCH   7   8
ATOM      8  CD  GLN A   1       7.112  27.527  12.472  0.00  0.00    +0.219 C 
ATOM      9  NE2 GLN A   1       7.649  27.948  13.615  0.00  0.00    -0.329 N 
ATOM     10 HE21 GLN A   1       8.298  27.331  14.143  0.00  0.00    +0.145 HD
ATOM     11 HE22 GLN A   1       7.419  28.894  13.980  0.00  0.00    +0.145 HD
ATOM     12  OE1 GLN A   1       7.316  26.433  11.955  0.00  0.00    -0.275 OA
ENDBRANCH   7   8
ENDBRANCH   1   7
TORSDOF 5
REMARK  Name = ../refined-set-2016/1b1h/1b1h_pocket.pdb
REMARK  296 active torsions:
REMARK  status: ('A' for Active; 'I' for Inactive)
REMARK    1  A    between atoms: _1  and  _3
REMARK    2  A    between atoms: _3  and  _4
REMARK    3  A    between atoms: _3  and  _6
REMARK    4  A    between atoms: _6  and  _7
REMARK    5  A    between atoms: _12  and  _14
REMARK    6  A    between atoms: _14  and  _15
REMARK    7  A    between atoms: _17  and  _19
REMARK    8  A    between atoms: _19  and  _20
REMARK    9  A    between atoms: _19  and  _22
REMARK   10  A    between atoms: _22  and  _23
REMARK   11  A    between atoms: _25  and  _27
REMARK   12  A    between atoms: _27  and  _28
REMARK   13  A    between atoms: _27  and  _30
REMARK   14  A    between atoms: _30  and  _31
REMARK   15  A    between atoms: _31  and  _32
REMARK   16  A    between atoms: _37  and  _39
REMARK   17  A    between atoms: _39  and  _40
REMARK   18  A    between atoms: _39  and  _42
REMARK   19  A    between atoms: _42  and  _43
REMARK   20  A    between atoms: _46  and  _48
REMARK   21  A    between atoms: _48  and  _49
REMARK   22  A    between atoms: _48  and  _51
REMARK   23  A    between atoms: _51  and  _52
REMARK   24  A    between atoms: _52  and  _53
REMARK   25  A    between atoms: _56  and  _58
REMARK   26  A    between atoms: _58  and  _59
REMARK   27  A    between atoms: _61  and  _63
REMARK   28  A    between atoms: _63  and  _64
REMARK   29  A    between atoms: _63  and  _66
REMARK   30  A    between atoms: _70  and  _71
REMARK   31  A    between atoms: _76  and  _78
REMARK   32  A    between atoms: _78  and  _79
REMARK   33  A    between atoms: _78  and  _81
REMARK   34  A    between atoms: _81  and  _82
REMARK   35  A    between atoms: _82  and  _83
REMARK   36  A    between atoms: _86  and  _88
REMARK   37  A    between atoms: _88  and  _89
REMARK   38  A    between atoms: _88  and  _91
REMARK   39  A    between atoms: _91  and  _92
REMARK   40  A    between atoms: _94  and  _96
REMARK   41  A    between atoms: _96  and  _97
REMARK   42  A    between atoms: _96  and  _99
REMARK   43  A    between atoms: _99  and  _100
REMARK   44  A    between atoms: _105  and  _107
REMARK   45  A    between atoms: _107  and  _108
REMARK   46  A    between atoms: _107  and  _110
REMARK   47  A    between atoms: _110  and  _111
REMARK   48  A    between atoms: _111  and  _112
REMARK   49  A    between atoms: _112  and  _113
REMARK   50  A    between atoms: _123  and  _124
REMARK   51  A    between atoms: _129  and  _131
REMARK   52  A    between atoms: _131  and  _132
REMARK   53  A    between atoms: _131  and  _134
REMARK   54  A    between atoms: _134  and  _135
REMARK   55  A    between atoms: _140  and  _141
REMARK   56  A    between atoms: _143  and  _145
REMARK   57  A    between atoms: _145  and  _146
REMARK   58  A    between atoms: _145  and  _148
REMARK   59  A    between atoms: _148  and  _149
REMARK   60  A    between atoms: _154  and  _155
REMARK   61  A    between atoms: _157  and  _159
REMARK   62  A    between atoms: _159  and  _160
REMARK   63  A    between atoms: _159  and  _162
REMARK   64  A    between atoms: _165  and  _167
REMARK   65  A    between atoms: _167  and  _168
REMARK   66  A    between atoms: _167  and  _170
REMARK   67  A    between atoms: _170  and  _171
REMARK   68  A    between atoms: _177  and  _178
REMARK   69  A    between atoms: _183  and  _185
REMARK   70  A    between atoms: _185  and  _186
REMARK   71  A    between atoms: _185  and  _188
REMARK   72  A    between atoms: _188  and  _189
REMARK   73  A    between atoms: _191  and  _193
REMARK   74  A    between atoms: _193  and  _194
REMARK   75  A    between atoms: _193  and  _196
REMARK   76  A    between atoms: _196  and  _197
REMARK   77  A    between atoms: _197  and  _198
REMARK   78  A    between atoms: _201  and  _203
REMARK   79  A    between atoms: _203  and  _204
REMARK   80  A    between atoms: _203  and  _206
REMARK   81  A    between atoms: _206  and  _207
REMARK   82  A    between atoms: _212  and  _213
REMARK   83  A    between atoms: _215  and  _217
REMARK   84  A    between atoms: _217  and  _218
REMARK   85  A    between atoms: _217  and  _220
REMARK   86  A    between atoms: _220  and  _221
REMARK   87  A    between atoms: _226  and  _228
REMARK   88  A    between atoms: _228  and  _229
REMARK   89  A    between atoms: _228  and  _231
REMARK   90  A    between atoms: _231  and  _232
REMARK   91  A    between atoms: _237  and  _239
REMARK   92  A    between atoms: _239  and  _240
REMARK   93  A    between atoms: _239  and  _242
REMARK   94  A    between atoms: _242  and  _243
REMARK   95  A    between atoms: _243  and  _244
REMARK   96  A    between atoms: _246  and  _248
REMARK   97  A    between atoms: _248  and  _249
REMARK   98  A    between atoms: _248  and  _251
REMARK   99  A    between atoms: _251  and  _252
REMARK  100  A    between atoms: _257  and  _258
REMARK  101  A    between atoms: _260  and  _262
REMARK  102  A    between atoms: _262  and  _263
REMARK  103  A    between atoms: _262  and  _265
REMARK  104  A    between atoms: _265  and  _266
REMARK  105  A    between atoms: _269  and  _271
REMARK  106  A    between atoms: _271  and  _272
REMARK  107  A    between atoms: _271  and  _274
REMARK  108  A    between atoms: _274  and  _275
REMARK  109  A    between atoms: _275  and  _558
REMARK  110  A    between atoms: _276  and  _278
REMARK  111  A    between atoms: _278  and  _279
REMARK  112  A    between atoms: _278  and  _281
REMARK  113  A    between atoms: _281  and  _282
REMARK  114  A    between atoms: _285  and  _287
REMARK  115  A    between atoms: _287  and  _288
REMARK  116  A    between atoms: _287  and  _290
REMARK  117  A    between atoms: _290  and  _291
REMARK  118  A    between atoms: _296  and  _297
REMARK  119  A    between atoms: _299  and  _301
REMARK  120  A    between atoms: _301  and  _302
REMARK  121  A    between atoms: _301  and  _304
REMARK  122  A    between atoms: _304  and  _305
REMARK  123  A    between atoms: _310  and  _311
REMARK  124  A    between atoms: _313  and  _315
REMARK  125  A    between atoms: _315  and  _316
REMARK  126  A    between atoms: _315  and  _318
REMARK  127  A    between atoms: _318  and  _319
REMARK  128  A    between atoms: _319  and  _320
REMARK  129  A    between atoms: _323  and  _325
REMARK  130  A    between atoms: _325  and  _326
REMARK  131  A    between atoms: _325  and  _328
REMARK  132  A    between atoms: _328  and  _329
REMARK  133  A    between atoms: _334  and  _335
REMARK  134  A    between atoms: _337  and  _339
REMARK  135  A    between atoms: _339  and  _340
REMARK  136  A    between atoms: _339  and  _342
REMARK  137  A    between atoms: _342  and  _343
REMARK  138  A    between atoms: _348  and  _350
REMARK  139  A    between atoms: _350  and  _351
REMARK  140  A    between atoms: _350  and  _353
REMARK  141  A    between atoms: _353  and  _354
REMARK  142  A    between atoms: _357  and  _359
REMARK  143  A    between atoms: _359  and  _360
REMARK  144  A    between atoms: _359  and  _362
REMARK  145  A    between atoms: _362  and  _363
REMARK  146  A    between atoms: _368  and  _370
REMARK  147  A    between atoms: _370  and  _371
REMARK  148  A    between atoms: _370  and  _373
REMARK  149  A    between atoms: _373  and  _374
REMARK  150  A    between atoms: _384  and  _386
REMARK  151  A    between atoms: _386  and  _387
REMARK  152  A    between atoms: _386  and  _389
REMARK  153  A    between atoms: _389  and  _390
REMARK  154  A    between atoms: _390  and  _391
REMARK  155  A    between atoms: _391  and  _392
REMARK  156  A    between atoms: _392  and  _393
REMARK  157  A    between atoms: _397  and  _399
REMARK  158  A    between atoms: _399  and  _400
REMARK  159  A    between atoms: _399  and  _402
REMARK  160  A    between atoms: _402  and  _403
REMARK  161  A    between atoms: _406  and  _408
REMARK  162  A    between atoms: _408  and  _409
REMARK  163  A    between atoms: _408  and  _411
REMARK  164  A    between atoms: _411  and  _412
REMARK  165  A    between atoms: _418  and  _420
REMARK  166  A    between atoms: _420  and  _421
REMARK  167  A    between atoms: _420  and  _423
REMARK  168  A    between atoms: _423  and  _424
REMARK  169  A    between atoms: _427  and  _429
REMARK  170  A    between atoms: _429  and  _430
REMARK  171  A    between atoms: _429  and  _432
REMARK  172  A    between atoms: _432  and  _433
REMARK  173  A    between atoms: _436  and  _438
REMARK  174  A    between atoms: _438  and  _439
REMARK  175  A    between atoms: _438  and  _441
REMARK  176  A    between atoms: _441  and  _442
REMARK  177  A    between atoms: _445  and  _447
REMARK  178  A    between atoms: _447  and  _448
REMARK  179  A    between atoms: _447  and  _450
REMARK  180  A    between atoms: _450  and  _451
REMARK  181  A    between atoms: _451  and  _452
REMARK  182  A    between atoms: _452  and  _453
REMARK  183  A    between atoms: _462  and  _464
REMARK  184  A    between atoms: _464  and  _465
REMARK  185  A    between atoms: _464  and  _467
REMARK  186  A    between atoms: _467  and  _468
REMARK  187  A    between atoms: _473  and  _475
REMARK  188  A    between atoms: _475  and  _476
REMARK  189  A    between atoms: _475  and  _478
REMARK  190  A    between atoms: _478  and  _479
REMARK  191  A    between atoms: _479  and  _480
REMARK  192  A    between atoms: _485  and  _487
REMARK  193  A    between atoms: _487  and  _488
REMARK  194  A    between atoms: _490  and  _492
REMARK  195  A    between atoms: _492  and  _493
REMARK  196  A    between atoms: _492  and  _495
REMARK  197  A    between atoms: _495  and  _496
REMARK  198  A    between atoms: _502  and  _504
REMARK  199  A    between atoms: _504  and  _505
REMARK  200  A    between atoms: _508  and  _510
REMARK  201  A    between atoms: _510  and  _511
REMARK  202  A    between atoms: _510  and  _513
REMARK  203  A    between atoms: _513  and  _514
REMARK  204  A    between atoms: _514  and  _515
REMARK  205  A    between atoms: _515  and  _516
REMARK  206  A    between atoms: _525  and  _527
REMARK  207  A    between atoms: _527  and  _528
REMARK  208  A    between atoms: _531  and  _533
REMARK  209  A    between atoms: _533  and  _534
REMARK  210  A    between atoms: _536  and  _538
REMARK  211  A    between atoms: _538  and  _539
REMARK  212  A    between atoms: _538  and  _541
REMARK  213  A    between atoms: _541  and  _542
REMARK  214  A    between atoms: _552  and  _554
REMARK  215  A    between atoms: _554  and  _555
REMARK  216  A    between atoms: _554  and  _557
REMARK  217  A    between atoms: _557  and  _558
REMARK  218  A    between atoms: _559  and  _561
REMARK  219  A    between atoms: _561  and  _562
REMARK  220  A    between atoms: _565  and  _567
REMARK  221  A    between atoms: _567  and  _568
REMARK  222  A    between atoms: _567  and  _570
REMARK  223  A    between atoms: _570  and  _571
REMARK  224  A    between atoms: _574  and  _576
REMARK  225  A    between atoms: _576  and  _577
REMARK  226  A    between atoms: _576  and  _579
REMARK  227  A    between atoms: _579  and  _580
REMARK  228  A    between atoms: _585  and  _586
REMARK  229  A    between atoms: _588  and  _590
REMARK  230  A    between atoms: _590  and  _591
REMARK  231  A    between atoms: _590  and  _593
REMARK  232  A    between atoms: _593  and  _594
REMARK  233  A    between atoms: _596  and  _598
REMARK  234  A    between atoms: _598  and  _599
REMARK  235  A    between atoms: _598  and  _601
REMARK  236  A    between atoms: _601  and  _602
REMARK  237  A    between atoms: _608  and  _610
REMARK  238  A    between atoms: _610  and  _611
REMARK  239  A    between atoms: _610  and  _613
REMARK  240  A    between atoms: _613  and  _614
REMARK  241  A    between atoms: _617  and  _619
REMARK  242  A    between atoms: _619  and  _620
REMARK  243  A    between atoms: _619  and  _622
REMARK  244  A    between atoms: _622  and  _623
REMARK  245  A    between atoms: _625  and  _627
REMARK  246  A    between atoms: _627  and  _628
REMARK  247  A    between atoms: _627  and  _630
REMARK  248  A    between atoms: _630  and  _631
REMARK  249  A    between atoms: _636  and  _638
REMARK  250  A    between atoms: _638  and  _639
REMARK  251  A    between atoms: _638  and  _641
REMARK  252  A    between atoms: _641  and  _642
REMARK  253  A    between atoms: _647  and  _649
REMARK  254  A    between atoms: _649  and  _650
REMARK  255  A    between atoms: _649  and  _652
REMARK  256  A    between atoms: _652  and  _653
REMARK  257  A    between atoms: _656  and  _658
REMARK  258  A    between atoms: _658  and  _659
REMARK  259  A    between atoms: _662  and  _664
REMARK  260  A    between atoms: _664  and  _665
REMARK  261  A    between atoms: _664  and  _667
REMARK  262  A    between atoms: _667  and  _668
REMARK  263  A    between atoms: _673  and  _674
REMARK  264  A    between atoms: _676  and  _678
REMARK  265  A    between atoms: _678  and  _679
REMARK  266  A    between atoms: _678  and  _681
REMARK  267  A    between atoms: _681  and  _682
REMARK  268  A    between atoms: _687  and  _688
REMARK  269  A    between atoms: _690  and  _692
REMARK  270  A    between atoms: _692  and  _693
REMARK  271  A    between atoms: _692  and  _695
REMARK  272  A    between atoms: _698  and  _700
REMARK  273  A    between atoms: _700  and  _701
REMARK  274  A    between atoms: _700  and  _703
REMARK  275  A    between atoms: _703  and  _704
REMARK  276  A    between atoms: _709  and  _711
REMARK  277  A    between atoms: _711  and  _712
REMARK  278  A    between atoms: _715  and  _717
REMARK  279  A    between atoms: _717  and  _718
REMARK  280  A    between atoms: _717  and  _720
REMARK  281  A    between atoms: _720  and  _721
REMARK  282  A    between atoms: _721  and  _722
REMARK  283  A    between atoms: _722  and  _723
REMARK  284  A    between atoms: _732  and  _734
REMARK  285  A    between atoms: _734  and  _735
REMARK  286  A    between atoms: _734  and  _737
REMARK  287  A    between atoms: _737  and  _738
REMARK  288  A    between atoms: _741  and  _743
REMARK  289  A    between atoms: _743  and  _744
REMARK  290  A    between atoms: _743  and  _746
REMARK  291  A    between atoms: _746  and  _747
REMARK  292  A    between atoms: _750  and  _752
REMARK  293  A    between atoms: _752  and  _753
REMARK  294  A    between atoms: _752  and  _755
REMARK  295  A    between atoms: _755  and  _756
REMARK  296  A    between atoms: _797  and  _800
REMARK                            x       y       z     vdW  Elec       q    Type
REMARK                         _______ _______ _______ _____ _____    ______ ____
ROOT
ATOM      1  C   VAL A   4       2.389  20.715   9.164  0.00  0.00    +0.244 C 
ATOM      2  N   PRO A   5       1.815  21.914   9.229  0.00  0.00    -0.272 N 
ATOM      3  CD  PRO A   5       1.278  22.578  10.442  0.00  0.00    +0.094 C 
ATOM      4  CG  PRO A   5       0.246  23.532   9.832  0.00  0.00    +0.024 C 
ATOM      5  CB  PRO A   5       0.871  23.970   8.520  0.00  0.00    +0.031 C 
ATOM      6  CA  PRO A   5       1.518  22.674   8.028  0.00  0.00    +0.152 C 
ATOM      7  O   VAL A   4       2.741  20.242   8.068  0.00  0.00    -0.273 OA
ENDROOT
BRANCH   6   8
ATOM      8  C   PRO A   5       2.797  22.954   7.240  0.00  0.00    +0.241 C 
ATOM      9  N   GLU A   6       3.872  23.302   7.961  0.00  0.00    -0.297 N 
ATOM     10  H   GLU A   6       3.804  23.359   8.997  0.00  0.00    +0.150 HD
ATOM     11  O   PRO A   5       2.822  22.849   6.017  0.00  0.00    -0.273 OA
BRANCH   9  12
ATOM     12  CA  GLU A   6       5.128  23.599   7.305  0.00  0.00    +0.149 C 
BRANCH  12  13
ATOM     13  C   GLU A   6       5.641  22.351   6.596  0.00  0.00    +0.241 C 
ATOM     14  N   SER A   7       5.606  21.231   7.309  0.00  0.00    -0.295 N 
ATOM     15  H   SER A   7       5.171  21.248   8.253  0.00  0.00    +0.150 HD
ATOM     16  O   GLU A   6       6.115  22.456   5.447  0.00  0.00    -0.273 OA
BRANCH  14  17
ATOM     17  CA  SER A   7       6.162  19.971   6.806  0.00  0.00    +0.178 C 
BRANCH  17  18
ATOM     18  C   SER A   7       5.363  19.447   5.624  0.00  0.00    +0.243 C 
ATOM     19  N   ASN A   8       4.045  19.717   5.604  0.00  0.00    -0.298 N 
ATOM     20  H   ASN A   8       3.607  20.240   6.389  0.00  0.00    +0.150 HD
ATOM     21  O   SER A   7       5.920  18.832   4.724  0.00  0.00    -0.273 OA
BRANCH  19  22
ATOM     22  CA  ASN A   8       3.233  19.273   4.476  0.00  0.00    +0.146 C 
BRANCH  22  23
ATOM     23  C   ASN A   8       3.747  19.883   3.174  0.00  0.00    +0.227 C 
ATOM     24  O   ASN A   8       3.821  19.192   2.164  0.00  0.00    -0.286 OA
ENDBRANCH  22  23
BRANCH  22  25
ATOM     25  CB  ASN A   8       1.776  19.704   4.679  0.00  0.00    +0.112 C 
BRANCH  25  26
ATOM     26  CG  ASN A   8       1.029  18.875   5.700  0.00  0.00    +0.222 C 
ATOM     27  ND2 ASN A   8      -0.063  19.427   6.203  0.00  0.00    -0.329 N 
ATOM     28 HD21 ASN A   8      -0.625  18.915   6.912  0.00  0.00    +0.145 HD
ATOM     29 HD22 ASN A   8      -0.359  20.373   5.889  0.00  0.00    +0.145 HD
ATOM     30  OD1 ASN A   8       1.407  17.751   6.053  0.00  0.00    -0.275 OA
ENDBRANCH  25  26
ENDBRANCH  22  25
ENDBRANCH  19  22
ENDBRANCH  17  18
BRANCH  17  31
ATOM     31  CB  SER A   7       6.248  18.923   7.924  0.00  0.00    +0.166 C 
BRANCH  31  32
ATOM     32  OG  SER A   7       7.162  19.425   8.932  0.00  0.00    -0.380 OA
ATOM     33  H   SER A   7       6.819  20.282   9.289  0.00  0.00    +0.211 HD
ENDBRANCH  31  32
ENDBRANCH  17  31
ENDBRANCH  14  17
ENDBRANCH  12  13
BRANCH  12  34
ATOM     34  CB  GLU A   6       6.177  24.095   8.326  0.00  0.00    +0.041 C 
BRANCH  34  35
ATOM     35  CG  GLU A   6       5.833  25.446   8.943  0.00  0.00    +0.116 C 
BRANCH  35  36
ATOM     36  CD  GLU A   6       4.653  25.489   9.875  0.00  0.00    +0.365 C 
ATOM     37  OE2 GLU A   6       4.272  24.453  10.465  0.00  0.00    -0.246 OA
ATOM     38  OE1 GLU A   6       4.051  26.554  10.118  0.00  0.00    -0.246 OA
ENDBRANCH  35  36
ENDBRANCH  34  35
ENDBRANCH  12  34
ENDBRANCH   9  12
ENDBRANCH   6   8
BRANCH   1  39
ATOM     39  CA  VAL A   4       2.732  19.981  10.443  0.00  0.00    +0.149 C 
BRANCH  39  41
ATOM     40  C   GLY A   3       4.634  21.340  11.218  0.00  0.00    +0.243 C 
ATOM     41  N   VAL A   4       3.417  20.822  11.417  0.00  0.00    -0.297 N 
ATOM     42  H   VAL A   4       2.934  21.030  12.314  0.00  0.00    +0.150 HD
ATOM     43  O   GLY A   3       5.247  21.143  10.187  0.00  0.00    -0.273 OA
BRANCH  40  44
ATOM     44  CA  GLY A   3       5.134  22.197  12.371  0.00  0.00    +0.176 C 
BRANCH  44  47
ATOM     45  C   GLU A   2       7.386  22.389  13.138  0.00  0.00    +0.241 C 
ATOM     46  O   GLU A   2       7.156  21.582  14.051  0.00  0.00    -0.273 OA
ATOM     47  N   GLY A   3       6.493  22.729  12.197  0.00  0.00    -0.295 N 
ATOM     48  H   GLY A   3       6.747  23.334  11.391  0.00  0.00    +0.150 HD
BRANCH  45  49
ATOM     49  CA  GLU A   2       8.777  22.953  13.038  0.00  0.00    +0.149 C 
BRANCH  49  51
ATOM     50  C   ILE A   1      10.081  24.060  11.378  0.00  0.00    +0.238 C 
ATOM     51  N   GLU A   2       8.887  23.989  12.001  0.00  0.00    -0.297 N 
ATOM     52  H   GLU A   2       8.098  24.624  11.764  0.00  0.00    +0.150 HD
ATOM     53  O   ILE A   1      11.028  23.309  11.636  0.00  0.00    -0.274 OA
BRANCH  50  54
ATOM     54  CA  ILE A   1      10.183  25.141  10.321  0.00  0.00    +0.145 C 
BRANCH  54  55
ATOM     55  CB  ILE A   1       9.577  24.596   9.022  0.00  0.00    +0.025 C 
ATOM     56  CG2 ILE A   1       9.459  25.719   7.979  0.00  0.00    +0.002 C 
BRANCH  55  57
ATOM     57  CG1 ILE A   1      10.363  23.409   8.472  0.00  0.00    +0.002 C 
ATOM     58  CD1 ILE A   1       9.672  22.718   7.306  0.00  0.00    +0.000 C 
ENDBRANCH  55  57
ENDBRANCH  54  55
BRANCH  54  59
ATOM     59  N   ILE A   1      11.565  25.606  10.055  0.00  0.00    -0.238 NA
ATOM     60  H   ILE A   1      12.232  25.039   9.494  0.00  0.00    +0.142 HD
ENDBRANCH  54  59
ENDBRANCH  50  54
ENDBRANCH  49  51
BRANCH  49  61
ATOM     61  CB  GLU A   2       9.309  23.522  14.358  0.00  0.00    +0.041 C 
BRANCH  61  62
ATOM     62  CG  GLU A   2       8.750  24.864  14.712  0.00  0.00    +0.116 C 
BRANCH  62  63
ATOM     63  CD  GLU A   2       9.375  25.646  15.845  0.00  0.00    +0.365 C 
ATOM     64  OE2 GLU A   2       9.874  25.078  16.840  0.00  0.00    -0.246 OA
ATOM     65  OE1 GLU A   2       9.295  26.884  15.721  0.00  0.00    -0.246 OA
ENDBRANCH  62  63
ENDBRANCH  61  62
ENDBRANCH  49  61
ENDBRANCH  45  49
ENDBRANCH  44  47
ENDBRANCH  40  44
ENDBRANCH  39  41
BRANCH  39  66
ATOM     66  CB  VAL A   4       1.513  19.284  11.080  0.00  0.00    +0.027 C 
ATOM     67  CG2 VAL A   4       2.021  18.282  12.134  0.00  0.00    +0.002 C 
ATOM     68  CG1 VAL A   4       0.705  18.519  10.033  0.00  0.00    +0.002 C 
ENDBRANCH  39  66
ENDBRANCH   1  39
TORSDOF 28
REMARK  Name = ../refined-set-2016/1b1h/1b1h_pocket.pdb
REMARK  296 active torsions:
REMARK  status: ('A' for Active; 'I' for Inactive)
REMARK    1  A    between atoms: _1  and  _3
REMARK    2  A    between atoms: _3  and  _4
REMARK    3  A    between atoms: _3  and  _6
REMARK    4  A    between atoms: _6  and  _7
REMARK    5  A    between atoms: _12  and  _14
REMARK    6  A    between atoms: _14  and  _15
REMARK    7  A    between atoms: _17  and  _19
REMARK    8  A    between atoms: _19  and  _20
REMARK    9  A    between atoms: _19  and  _22
REMARK   10  A    between atoms: _22  and  _23
REMARK   11  A    between atoms: _25  and  _27
REMARK   12  A    between atoms: _27  and  _28
REMARK   13  A    between atoms: _27  and  _30
REMARK   14  A    between atoms: _30  and  _31
REMARK   15  A    between atoms: _31  and  _32
REMARK   16  A    between atoms: _37  and  _39
REMARK   17  A    between atoms: _39  and  _40
REMARK   18  A    between atoms: _39  and  _42
REMARK   19  A    between atoms: _42  and  _43
REMARK   20  A    between atoms: _46  and  _48
REMARK   21  A    between atoms: _48  and  _49
REMARK   22  A    between atoms: _48  and  _51
REMARK   23  A    between atoms: _51  and  _52
REMARK   24  A    between atoms: _52  and  _53
REMARK   25  A    between atoms: _56  and  _58
REMARK   26  A    between atoms: _58  and  _59
REMARK   27  A    between atoms: _61  and  _63
REMARK   28  A    between atoms: _63  and  _64
REMARK   29  A    between atoms: _63  and  _66
REMARK   30  A    between atoms: _70  and  _71
REMARK   31  A    between atoms: _76  and  _78
REMARK   32  A    between atoms: _78  and  _79
REMARK   33  A    between atoms: _78  and  _81
REMARK   34  A    between atoms: _81  and  _82
REMARK   35  A    between atoms: _82  and  _83
REMARK   36  A    between atoms: _86  and  _88
REMARK   37  A    between atoms: _88  and  _89
REMARK   38  A    between atoms: _88  and  _91
REMARK   39  A    between atoms: _91  and  _92
REMARK   40  A    between atoms: _94  and  _96
REMARK   41  A    between atoms: _96  and  _97
REMARK   42  A    between atoms: _96  and  _99
REMARK   43  A    between atoms: _99  and  _100
REMARK   44  A    between atoms: _105  and  _107
REMARK   45  A    between atoms: _107  and  _108
REMARK   46  A    between atoms: _107  and  _110
REMARK   47  A    between atoms: _110  and  _111
REMARK   48  A    between atoms: _111  and  _112
REMARK   49  A    between atoms: _112  and  _113
REMARK   50  A    between atoms: _123  and  _124
REMARK   51  A    between atoms: _129  and  _131
REMARK   52  A    between atoms: _131  and  _132
REMARK   53  A    between atoms: _131  and  _134
REMARK   54  A    between atoms: _134  and  _135
REMARK   55  A    between atoms: _140  and  _141
REMARK   56  A    between atoms: _143  and  _145
REMARK   57  A    between atoms: _145  and  _146
REMARK   58  A    between atoms: _145  and  _148
REMARK   59  A    between atoms: _148  and  _149
REMARK   60  A    between atoms: _154  and  _155
REMARK   61  A    between atoms: _157  and  _159
REMARK   62  A    between atoms: _159  and  _160
REMARK   63  A    between atoms: _159  and  _162
REMARK   64  A    between atoms: _165  and  _167
REMARK   65  A    between atoms: _167  and  _168
REMARK   66  A    between atoms: _167  and  _170
REMARK   67  A    between atoms: _170  and  _171
REMARK   68  A    between atoms: _177  and  _178
REMARK   69  A    between atoms: _183  and  _185
REMARK   70  A    between atoms: _185  and  _186
REMARK   71  A    between atoms: _185  and  _188
REMARK   72  A    between atoms: _188  and  _189
REMARK   73  A    between atoms: _191  and  _193
REMARK   74  A    between atoms: _193  and  _194
REMARK   75  A    between atoms: _193  and  _196
REMARK   76  A    between atoms: _196  and  _197
REMARK   77  A    between atoms: _197  and  _198
REMARK   78  A    between atoms: _201  and  _203
REMARK   79  A    between atoms: _203  and  _204
REMARK   80  A    between atoms: _203  and  _206
REMARK   81  A    between atoms: _206  and  _207
REMARK   82  A    between atoms: _212  and  _213
REMARK   83  A    between atoms: _215  and  _217
REMARK   84  A    between atoms: _217  and  _218
REMARK   85  A    between atoms: _217  and  _220
REMARK   86  A    between atoms: _220  and  _221
REMARK   87  A    between atoms: _226  and  _228
REMARK   88  A    between atoms: _228  and  _229
REMARK   89  A    between atoms: _228  and  _231
REMARK   90  A    between atoms: _231  and  _232
REMARK   91  A    between atoms: _237  and  _239
REMARK   92  A    between atoms: _239  and  _240
REMARK   93  A    between atoms: _239  and  _242
REMARK   94  A    between atoms: _242  and  _243
REMARK   95  A    between atoms: _243  and  _244
REMARK   96  A    between atoms: _246  and  _248
REMARK   97  A    between atoms: _248  and  _249
REMARK   98  A    between atoms: _248  and  _251
REMARK   99  A    between atoms: _251  and  _252
REMARK  100  A    between atoms: _257  and  _258
REMARK  101  A    between atoms: _260  and  _262
REMARK  102  A    between atoms: _262  and  _263
REMARK  103  A    between atoms: _262  and  _265
REMARK  104  A    between atoms: _265  and  _266
REMARK  105  A    between atoms: _269  and  _271
REMARK  106  A    between atoms: _271  and  _272
REMARK  107  A    between atoms: _271  and  _274
REMARK  108  A    between atoms: _274  and  _275
REMARK  109  A    between atoms: _275  and  _558
REMARK  110  A    between atoms: _276  and  _278
REMARK  111  A    between atoms: _278  and  _279
REMARK  112  A    between atoms: _278  and  _281
REMARK  113  A    between atoms: _281  and  _282
REMARK  114  A    between atoms: _285  and  _287
REMARK  115  A    between atoms: _287  and  _288
REMARK  116  A    between atoms: _287  and  _290
REMARK  117  A    between atoms: _290  and  _291
REMARK  118  A    between atoms: _296  and  _297
REMARK  119  A    between atoms: _299  and  _301
REMARK  120  A    between atoms: _301  and  _302
REMARK  121  A    between atoms: _301  and  _304
REMARK  122  A    between atoms: _304  and  _305
REMARK  123  A    between atoms: _310  and  _311
REMARK  124  A    between atoms: _313  and  _315
REMARK  125  A    between atoms: _315  and  _316
REMARK  126  A    between atoms: _315  and  _318
REMARK  127  A    between atoms: _318  and  _319
REMARK  128  A    between atoms: _319  and  _320
REMARK  129  A    between atoms: _323  and  _325
REMARK  130  A    between atoms: _325  and  _326
REMARK  131  A    between atoms: _325  and  _328
REMARK  132  A    between atoms: _328  and  _329
REMARK  133  A    between atoms: _334  and  _335
REMARK  134  A    between atoms: _337  and  _339
REMARK  135  A    between atoms: _339  and  _340
REMARK  136  A    between atoms: _339  and  _342
REMARK  137  A    between atoms: _342  and  _343
REMARK  138  A    between atoms: _348  and  _350
REMARK  139  A    between atoms: _350  and  _351
REMARK  140  A    between atoms: _350  and  _353
REMARK  141  A    between atoms: _353  and  _354
REMARK  142  A    between atoms: _357  and  _359
REMARK  143  A    between atoms: _359  and  _360
REMARK  144  A    between atoms: _359  and  _362
REMARK  145  A    between atoms: _362  and  _363
REMARK  146  A    between atoms: _368  and  _370
REMARK  147  A    between atoms: _370  and  _371
REMARK  148  A    between atoms: _370  and  _373
REMARK  149  A    between atoms: _373  and  _374
REMARK  150  A    between atoms: _384  and  _386
REMARK  151  A    between atoms: _386  and  _387
REMARK  152  A    between atoms: _386  and  _389
REMARK  153  A    between atoms: _389  and  _390
REMARK  154  A    between atoms: _390  and  _391
REMARK  155  A    between atoms: _391  and  _392
REMARK  156  A    between atoms: _392  and  _393
REMARK  157  A    between atoms: _397  and  _399
REMARK  158  A    between atoms: _399  and  _400
REMARK  159  A    between atoms: _399  and  _402
REMARK  160  A    between atoms: _402  and  _403
REMARK  161  A    between atoms: _406  and  _408
REMARK  162  A    between atoms: _408  and  _409
REMARK  163  A    between atoms: _408  and  _411
REMARK  164  A    between atoms: _411  and  _412
REMARK  165  A    between atoms: _418  and  _420
REMARK  166  A    between atoms: _420  and  _421
REMARK  167  A    between atoms: _420  and  _423
REMARK  168  A    between atoms: _423  and  _424
REMARK  169  A    between atoms: _427  and  _429
REMARK  170  A    between atoms: _429  and  _430
REMARK  171  A    between atoms: _429  and  _432
REMARK  172  A    between atoms: _432  and  _433
REMARK  173  A    between atoms: _436  and  _438
REMARK  174  A    between atoms: _438  and  _439
REMARK  175  A    between atoms: _438  and  _441
REMARK  176  A    between atoms: _441  and  _442
REMARK  177  A    between atoms: _445  and  _447
REMARK  178  A    between atoms: _447  and  _448
REMARK  179  A    between atoms: _447  and  _450
REMARK  180  A    between atoms: _450  and  _451
REMARK  181  A    between atoms: _451  and  _452
REMARK  182  A    between atoms: _452  and  _453
REMARK  183  A    between atoms: _462  and  _464
REMARK  184  A    between atoms: _464  and  _465
REMARK  185  A    between atoms: _464  and  _467
REMARK  186  A    between atoms: _467  and  _468
REMARK  187  A    between atoms: _473  and  _475
REMARK  188  A    between atoms: _475  and  _476
REMARK  189  A    between atoms: _475  and  _478
REMARK  190  A    between atoms: _478  and  _479
REMARK  191  A    between atoms: _479  and  _480
REMARK  192  A    between atoms: _485  and  _487
REMARK  193  A    between atoms: _487  and  _488
REMARK  194  A    between atoms: _490  and  _492
REMARK  195  A    between atoms: _492  and  _493
REMARK  196  A    between atoms: _492  and  _495
REMARK  197  A    between atoms: _495  and  _496
REMARK  198  A    between atoms: _502  and  _504
REMARK  199  A    between atoms: _504  and  _505
REMARK  200  A    between atoms: _508  and  _510
REMARK  201  A    between atoms: _510  and  _511
REMARK  202  A    between atoms: _510  and  _513
REMARK  203  A    between atoms: _513  and  _514
REMARK  204  A    between atoms: _514  and  _515
REMARK  205  A    between atoms: _515  and  _516
REMARK  206  A    between atoms: _525  and  _527
REMARK  207  A    between atoms: _527  and  _528
REMARK  208  A    between atoms: _531  and  _533
REMARK  209  A    between atoms: _533  and  _534
REMARK  210  A    between atoms: _536  and  _538
REMARK  211  A    between atoms: _538  and  _539
REMARK  212  A    between atoms: _538  and  _541
REMARK  213  A    between atoms: _541  and  _542
REMARK  214  A    between atoms: _552  and  _554
REMARK  215  A    between atoms: _554  and  _555
REMARK  216  A    between atoms: _554  and  _557
REMARK  217  A    between atoms: _557  and  _558
REMARK  218  A    between atoms: _559  and  _561
REMARK  219  A    between atoms: _561  and  _562
REMARK  220  A    between atoms: _565  and  _567
REMARK  221  A    between atoms: _567  and  _568
REMARK  222  A    between atoms: _567  and  _570
REMARK  223  A    between atoms: _570  and  _571
REMARK  224  A    between atoms: _574  and  _576
REMARK  225  A    between atoms: _576  and  _577
REMARK  226  A    between atoms: _576  and  _579
REMARK  227  A    between atoms: _579  and  _580
REMARK  228  A    between atoms: _585  and  _586
REMARK  229  A    between atoms: _588  and  _590
REMARK  230  A    between atoms: _590  and  _591
REMARK  231  A    between atoms: _590  and  _593
REMARK  232  A    between atoms: _593  and  _594
REMARK  233  A    between atoms: _596  and  _598
REMARK  234  A    between atoms: _598  and  _599
REMARK  235  A    between atoms: _598  and  _601
REMARK  236  A    between atoms: _601  and  _602
REMARK  237  A    between atoms: _608  and  _610
REMARK  238  A    between atoms: _610  and  _611
REMARK  239  A    between atoms: _610  and  _613
REMARK  240  A    between atoms: _613  and  _614
REMARK  241  A    between atoms: _617  and  _619
REMARK  242  A    between atoms: _619  and  _620
REMARK  243  A    between atoms: _619  and  _622
REMARK  244  A    between atoms: _622  and  _623
REMARK  245  A    between atoms: _625  and  _627
REMARK  246  A    between atoms: _627  and  _628
REMARK  247  A    between atoms: _627  and  _630
REMARK  248  A    between atoms: _630  and  _631
REMARK  249  A    between atoms: _636  and  _638
REMARK  250  A    between atoms: _638  and  _639
REMARK  251  A    between atoms: _638  and  _641
REMARK  252  A    between atoms: _641  and  _642
REMARK  253  A    between atoms: _647  and  _649
REMARK  254  A    between atoms: _649  and  _650
REMARK  255  A    between atoms: _649  and  _652
REMARK  256  A    between atoms: _652  and  _653
REMARK  257  A    between atoms: _656  and  _658
REMARK  258  A    between atoms: _658  and  _659
REMARK  259  A    between atoms: _662  and  _664
REMARK  260  A    between atoms: _664  and  _665
REMARK  261  A    between atoms: _664  and  _667
REMARK  262  A    between atoms: _667  and  _668
REMARK  263  A    between atoms: _673  and  _674
REMARK  264  A    between atoms: _676  and  _678
REMARK  265  A    between atoms: _678  and  _679
REMARK  266  A    between atoms: _678  and  _681
REMARK  267  A    between atoms: _681  and  _682
REMARK  268  A    between atoms: _687  and  _688
REMARK  269  A    between atoms: _690  and  _692
REMARK  270  A    between atoms: _692  and  _693
REMARK  271  A    between atoms: _692  and  _695
REMARK  272  A    between atoms: _698  and  _700
REMARK  273  A    between atoms: _700  and  _701
REMARK  274  A    between atoms: _700  and  _703
REMARK  275  A    between atoms: _703  and  _704
REMARK  276  A    between atoms: _709  and  _711
REMARK  277  A    between atoms: _711  and  _712
REMARK  278  A    between atoms: _715  and  _717
REMARK  279  A    between atoms: _717  and  _718
REMARK  280  A    between atoms: _717  and  _720
REMARK  281  A    between atoms: _720  and  _721
REMARK  282  A    between atoms: _721  and  _722
REMARK  283  A    between atoms: _722  and  _723
REMARK  284  A    between atoms: _732  and  _734
REMARK  285  A    between atoms: _734  and  _735
REMARK  286  A    between atoms: _734  and  _737
REMARK  287  A    between atoms: _737  and  _738
REMARK  288  A    between atoms: _741  and  _743
REMARK  289  A    between atoms: _743  and  _744
REMARK  290  A    between atoms: _743  and  _746
REMARK  291  A    between atoms: _746  and  _747
REMARK  292  A    between atoms: _750  and  _752
REMARK  293  A    between atoms: _752  and  _753
REMARK  294  A    between atoms: _752  and  _755
REMARK  295  A    between atoms: _755  and  _756
REMARK  296  A    between atoms: _797  and  _800
REMARK                            x       y       z     vdW  Elec       q    Type
REMARK                         _______ _______ _______ _____ _____    ______ ____
ROOT
ATOM      1  NE  ARG A   1       5.042  14.901   4.075  0.00  0.00    -0.265 N 
ATOM      2  CZ  ARG A   1       4.466  15.522   5.087  0.00  0.00    +0.342 C 
ATOM      3  NH2 ARG A   1       5.161  15.925   6.157  0.00  0.00    -0.292 N 
ATOM      4 HH21 ARG A   1       4.677  16.412   6.938  0.00  0.00    +0.255 HD
ATOM      5 HH22 ARG A   1       6.185  15.751   6.208  0.00  0.00    +0.255 HD
ATOM      6  NH1 ARG A   1       3.152  15.732   5.049  0.00  0.00    -0.292 N 
ATOM      7 HH11 ARG A   1       2.680  16.220   5.837  0.00  0.00    +0.255 HD
ATOM      8 HH12 ARG A   1       2.597  15.408   4.231  0.00  0.00    +0.255 HD
ATOM      9  HE  ARG A   1       4.422  14.618   3.290  0.00  0.00    +0.259 HD
ENDROOT
BRANCH   1  10
ATOM     10  CD  ARG A   1       6.460  14.569   3.941  0.00  0.00    +0.174 C 
BRANCH  10  11
ATOM     11  CG  ARG A   1       7.317  15.739   3.494  0.00  0.00    +0.045 C 
BRANCH  11  12
ATOM     12  CB  ARG A   1       6.837  16.297   2.151  0.00  0.00    +0.029 C 
BRANCH  12  13
ATOM     13  CA  ARG A   1       7.806  17.337   1.556  0.00  0.00    +0.133 C 
BRANCH  13  14
ATOM     14  N   ARG A   1       7.613  18.620   2.226  0.00  0.00    -0.239 NA
ATOM     15  H   ARG A   1       6.844  18.735   2.917  0.00  0.00    +0.142 HD
ENDBRANCH  13  14
BRANCH  13  16
ATOM     16  C   ARG A   1       7.639  17.412   0.043  0.00  0.00    +0.224 C 
ATOM     17  O   ARG A   1       8.254  16.603  -0.668  0.00  0.00    -0.287 OA
ENDBRANCH  13  16
ENDBRANCH  12  13
ENDBRANCH  11  12
ENDBRANCH  10  11
ENDBRANCH   1  10
TORSDOF 6
REMARK  Name = ../refined-set-2016/1b1h/1b1h_pocket.pdb
REMARK  296 active torsions:
REMARK  status: ('A' for Active; 'I' for Inactive)
REMARK    1  A    between atoms: _1  and  _3
REMARK    2  A    between atoms: _3  and  _4
REMARK    3  A    between atoms: _3  and  _6
REMARK    4  A    between atoms: _6  and  _7
REMARK    5  A    between atoms: _12  and  _14
REMARK    6  A    between atoms: _14  and  _15
REMARK    7  A    between atoms: _17  and  _19
REMARK    8  A    between atoms: _19  and  _20
REMARK    9  A    between atoms: _19  and  _22
REMARK   10  A    between atoms: _22  and  _23
REMARK   11  A    between atoms: _25  and  _27
REMARK   12  A    between atoms: _27  and  _28
REMARK   13  A    between atoms: _27  and  _30
REMARK   14  A    between atoms: _30  and  _31
REMARK   15  A    between atoms: _31  and  _32
REMARK   16  A    between atoms: _37  and  _39
REMARK   17  A    between atoms: _39  and  _40
REMARK   18  A    between atoms: _39  and  _42
REMARK   19  A    between atoms: _42  and  _43
REMARK   20  A    between atoms: _46  and  _48
REMARK   21  A    between atoms: _48  and  _49
REMARK   22  A    between atoms: _48  and  _51
REMARK   23  A    between atoms: _51  and  _52
REMARK   24  A    between atoms: _52  and  _53
REMARK   25  A    between atoms: _56  and  _58
REMARK   26  A    between atoms: _58  and  _59
REMARK   27  A    between atoms: _61  and  _63
REMARK   28  A    between atoms: _63  and  _64
REMARK   29  A    between atoms: _63  and  _66
REMARK   30  A    between atoms: _70  and  _71
REMARK   31  A    between atoms: _76  and  _78
REMARK   32  A    between atoms: _78  and  _79
REMARK   33  A    between atoms: _78  and  _81
REMARK   34  A    between atoms: _81  and  _82
REMARK   35  A    between atoms: _82  and  _83
REMARK   36  A    between atoms: _86  and  _88
REMARK   37  A    between atoms: _88  and  _89
REMARK   38  A    between atoms: _88  and  _91
REMARK   39  A    between atoms: _91  and  _92
REMARK   40  A    between atoms: _94  and  _96
REMARK   41  A    between atoms: _96  and  _97
REMARK   42  A    between atoms: _96  and  _99
REMARK   43  A    between atoms: _99  and  _100
REMARK   44  A    between atoms: _105  and  _107
REMARK   45  A    between atoms: _107  and  _108
REMARK   46  A    between atoms: _107  and  _110
REMARK   47  A    between atoms: _110  and  _111
REMARK   48  A    between atoms: _111  and  _112
REMARK   49  A    between atoms: _112  and  _113
REMARK   50  A    between atoms: _123  and  _124
REMARK   51  A    between atoms: _129  and  _131
REMARK   52  A    between atoms: _131  and  _132
REMARK   53  A    between atoms: _131  and  _134
REMARK   54  A    between atoms: _134  and  _135
REMARK   55  A    between atoms: _140  and  _141
REMARK   56  A    between atoms: _143  and  _145
REMARK   57  A    between atoms: _145  and  _146
REMARK   58  A    between atoms: _145  and  _148
REMARK   59  A    between atoms: _148  and  _149
REMARK   60  A    between atoms: _154  and  _155
REMARK   61  A    between atoms: _157  and  _159
REMARK   62  A    between atoms: _159  and  _160
REMARK   63  A    between atoms: _159  and  _162
REMARK   64  A    between atoms: _165  and  _167
REMARK   65  A    between atoms: _167  and  _168
REMARK   66  A    between atoms: _167  and  _170
REMARK   67  A    between atoms: _170  and  _171
REMARK   68  A    between atoms: _177  and  _178
REMARK   69  A    between atoms: _183  and  _185
REMARK   70  A    between atoms: _185  and  _186
REMARK   71  A    between atoms: _185  and  _188
REMARK   72  A    between atoms: _188  and  _189
REMARK   73  A    between atoms: _191  and  _193
REMARK   74  A    between atoms: _193  and  _194
REMARK   75  A    between atoms: _193  and  _196
REMARK   76  A    between atoms: _196  and  _197
REMARK   77  A    between atoms: _197  and  _198
REMARK   78  A    between atoms: _201  and  _203
REMARK   79  A    between atoms: _203  and  _204
REMARK   80  A    between atoms: _203  and  _206
REMARK   81  A    between atoms: _206  and  _207
REMARK   82  A    between atoms: _212  and  _213
REMARK   83  A    between atoms: _215  and  _217
REMARK   84  A    between atoms: _217  and  _218
REMARK   85  A    between atoms: _217  and  _220
REMARK   86  A    between atoms: _220  and  _221
REMARK   87  A    between atoms: _226  and  _228
REMARK   88  A    between atoms: _228  and  _229
REMARK   89  A    between atoms: _228  and  _231
REMARK   90  A    between atoms: _231  and  _232
REMARK   91  A    between atoms: _237  and  _239
REMARK   92  A    between atoms: _239  and  _240
REMARK   93  A    between atoms: _239  and  _242
REMARK   94  A    between atoms: _242  and  _243
REMARK   95  A    between atoms: _243  and  _244
REMARK   96  A    between atoms: _246  and  _248
REMARK   97  A    between atoms: _248  and  _249
REMARK   98  A    between atoms: _248  and  _251
REMARK   99  A    between atoms: _251  and  _252
REMARK  100  A    between atoms: _257  and  _258
REMARK  101  A    between atoms: _260  and  _262
REMARK  102  A    between atoms: _262  and  _263
REMARK  103  A    between atoms: _262  and  _265
REMARK  104  A    between atoms: _265  and  _266
REMARK  105  A    between atoms: _269  and  _271
REMARK  106  A    between atoms: _271  and  _272
REMARK  107  A    between atoms: _271  and  _274
REMARK  108  A    between atoms: _274  and  _275
REMARK  109  A    between atoms: _275  and  _558
REMARK  110  A    between atoms: _276  and  _278
REMARK  111  A    between atoms: _278  and  _279
REMARK  112  A    between atoms: _278  and  _281
REMARK  113  A    between atoms: _281  and  _282
REMARK  114  A    between atoms: _285  and  _287
REMARK  115  A    between atoms: _287  and  _288
REMARK  116  A    between atoms: _287  and  _290
REMARK  117  A    between atoms: _290  and  _291
REMARK  118  A    between atoms: _296  and  _297
REMARK  119  A    between atoms: _299  and  _301
REMARK  120  A    between atoms: _301  and  _302
REMARK  121  A    between atoms: _301  and  _304
REMARK  122  A    between atoms: _304  and  _305
REMARK  123  A    between atoms: _310  and  _311
REMARK  124  A    between atoms: _313  and  _315
REMARK  125  A    between atoms: _315  and  _316
REMARK  126  A    between atoms: _315  and  _318
REMARK  127  A    between atoms: _318  and  _319
REMARK  128  A    between atoms: _319  and  _320
REMARK  129  A    between atoms: _323  and  _325
REMARK  130  A    between atoms: _325  and  _326
REMARK  131  A    between atoms: _325  and  _328
REMARK  132  A    between atoms: _328  and  _329
REMARK  133  A    between atoms: _334  and  _335
REMARK  134  A    between atoms: _337  and  _339
REMARK  135  A    between atoms: _339  and  _340
REMARK  136  A    between atoms: _339  and  _342
REMARK  137  A    between atoms: _342  and  _343
REMARK  138  A    between atoms: _348  and  _350
REMARK  139  A    between atoms: _350  and  _351
REMARK  140  A    between atoms: _350  and  _353
REMARK  141  A    between atoms: _353  and  _354
REMARK  142  A    between atoms: _357  and  _359
REMARK  143  A    between atoms: _359  and  _360
REMARK  144  A    between atoms: _359  and  _362
REMARK  145  A    between atoms: _362  and  _363
REMARK  146  A    between atoms: _368  and  _370
REMARK  147  A    between atoms: _370  and  _371
REMARK  148  A    between atoms: _370  and  _373
REMARK  149  A    between atoms: _373  and  _374
REMARK  150  A    between atoms: _384  and  _386
REMARK  151  A    between atoms: _386  and  _387
REMARK  152  A    between atoms: _386  and  _389
REMARK  153  A    between atoms: _389  and  _390
REMARK  154  A    between atoms: _390  and  _391
REMARK  155  A    between atoms: _391  and  _392
REMARK  156  A    between atoms: _392  and  _393
REMARK  157  A    between atoms: _397  and  _399
REMARK  158  A    between atoms: _399  and  _400
REMARK  159  A    between atoms: _399  and  _402
REMARK  160  A    between atoms: _402  and  _403
REMARK  161  A    between atoms: _406  and  _408
REMARK  162  A    between atoms: _408  and  _409
REMARK  163  A    between atoms: _408  and  _411
REMARK  164  A    between atoms: _411  and  _412
REMARK  165  A    between atoms: _418  and  _420
REMARK  166  A    between atoms: _420  and  _421
REMARK  167  A    between atoms: _420  and  _423
REMARK  168  A    between atoms: _423  and  _424
REMARK  169  A    between atoms: _427  and  _429
REMARK  170  A    between atoms: _429  and  _430
REMARK  171  A    between atoms: _429  and  _432
REMARK  172  A    between atoms: _432  and  _433
REMARK  173  A    between atoms: _436  and  _438
REMARK  174  A    between atoms: _438  and  _439
REMARK  175  A    between atoms: _438  and  _441
REMARK  176  A    between atoms: _441  and  _442
REMARK  177  A    between atoms: _445  and  _447
REMARK  178  A    between atoms: _447  and  _448
REMARK  179  A    between atoms: _447  and  _450
REMARK  180  A    between atoms: _450  and  _451
REMARK  181  A    between atoms: _451  and  _452
REMARK  182  A    between atoms: _452  and  _453
REMARK  183  A    between atoms: _462  and  _464
REMARK  184  A    between atoms: _464  and  _465
REMARK  185  A    between atoms: _464  and  _467
REMARK  186  A    between atoms: _467  and  _468
REMARK  187  A    between atoms: _473  and  _475
REMARK  188  A    between atoms: _475  and  _476
REMARK  189  A    between atoms: _475  and  _478
REMARK  190  A    between atoms: _478  and  _479
REMARK  191  A    between atoms: _479  and  _480
REMARK  192  A    between atoms: _485  and  _487
REMARK  193  A    between atoms: _487  and  _488
REMARK  194  A    between atoms: _490  and  _492
REMARK  195  A    between atoms: _492  and  _493
REMARK  196  A    between atoms: _492  and  _495
REMARK  197  A    between atoms: _495  and  _496
REMARK  198  A    between atoms: _502  and  _504
REMARK  199  A    between atoms: _504  and  _505
REMARK  200  A    between atoms: _508  and  _510
REMARK  201  A    between atoms: _510  and  _511
REMARK  202  A    between atoms: _510  and  _513
REMARK  203  A    between atoms: _513  and  _514
REMARK  204  A    between atoms: _514  and  _515
REMARK  205  A    between atoms: _515  and  _516
REMARK  206  A    between atoms: _525  and  _527
REMARK  207  A    between atoms: _527  and  _528
REMARK  208  A    between atoms: _531  and  _533
REMARK  209  A    between atoms: _533  and  _534
REMARK  210  A    between atoms: _536  and  _538
REMARK  211  A    between atoms: _538  and  _539
REMARK  212  A    between atoms: _538  and  _541
REMARK  213  A    between atoms: _541  and  _542
REMARK  214  A    between atoms: _552  and  _554
REMARK  215  A    between atoms: _554  and  _555
REMARK  216  A    between atoms: _554  and  _557
REMARK  217  A    between atoms: _557  and  _558
REMARK  218  A    between atoms: _559  and  _561
REMARK  219  A    between atoms: _561  and  _562
REMARK  220  A    between atoms: _565  and  _567
REMARK  221  A    between atoms: _567  and  _568
REMARK  222  A    between atoms: _567  and  _570
REMARK  223  A    between atoms: _570  and  _571
REMARK  224  A    between atoms: _574  and  _576
REMARK  225  A    between atoms: _576  and  _577
REMARK  226  A    between atoms: _576  and  _579
REMARK  227  A    between atoms: _579  and  _580
REMARK  228  A    between atoms: _585  and  _586
REMARK  229  A    between atoms: _588  and  _590
REMARK  230  A    between atoms: _590  and  _591
REMARK  231  A    between atoms: _590  and  _593
REMARK  232  A    between atoms: _593  and  _594
REMARK  233  A    between atoms: _596  and  _598
REMARK  234  A    between atoms: _598  and  _599
REMARK  235  A    between atoms: _598  and  _601
REMARK  236  A    between atoms: _601  and  _602
REMARK  237  A    between atoms: _608  and  _610
REMARK  238  A    between atoms: _610  and  _611
REMARK  239  A    between atoms: _610  and  _613
REMARK  240  A    between atoms: _613  and  _614
REMARK  241  A    between atoms: _617  and  _619
REMARK  242  A    between atoms: _619  and  _620
REMARK  243  A    between atoms: _619  and  _622
REMARK  244  A    between atoms: _622  and  _623
REMARK  245  A    between atoms: _625  and  _627
REMARK  246  A    between atoms: _627  and  _628
REMARK  247  A    between atoms: _627  and  _630
REMARK  248  A    between atoms: _630  and  _631
REMARK  249  A    between atoms: _636  and  _638
REMARK  250  A    between atoms: _638  and  _639
REMARK  251  A    between atoms: _638  and  _641
REMARK  252  A    between atoms: _641  and  _642
REMARK  253  A    between atoms: _647  and  _649
REMARK  254  A    between atoms: _649  and  _650
REMARK  255  A    between atoms: _649  and  _652
REMARK  256  A    between atoms: _652  and  _653
REMARK  257  A    between atoms: _656  and  _658
REMARK  258  A    between atoms: _658  and  _659
REMARK  259  A    between atoms: _662  and  _664
REMARK  260  A    between atoms: _664  and  _665
REMARK  261  A    between atoms: _664  and  _667
REMARK  262  A    between atoms: _667  and  _668
REMARK  263  A    between atoms: _673  and  _674
REMARK  264  A    between atoms: _676  and  _678
REMARK  265  A    between atoms: _678  and  _679
REMARK  266  A    between atoms: _678  and  _681
REMARK  267  A    between atoms: _681  and  _682
REMARK  268  A    between atoms: _687  and  _688
REMARK  269  A    between atoms: _690  and  _692
REMARK  270  A    between atoms: _692  and  _693
REMARK  271  A    between atoms: _692  and  _695
REMARK  272  A    between atoms: _698  and  _700
REMARK  273  A    between atoms: _700  and  _701
REMARK  274  A    between atoms: _700  and  _703
REMARK  275  A    between atoms: _703  and  _704
REMARK  276  A    between atoms: _709  and  _711
REMARK  277  A    between atoms: _711  and  _712
REMARK  278  A    between atoms: _715  and  _717
REMARK  279  A    between atoms: _717  and  _718
REMARK  280  A    between atoms: _717  and  _720
REMARK  281  A    between atoms: _720  and  _721
REMARK  282  A    between atoms: _721  and  _722
REMARK  283  A    between atoms: _722  and  _723
REMARK  284  A    between atoms: _732  and  _734
REMARK  285  A    between atoms: _734  and  _735
REMARK  286  A    between atoms: _734  and  _737
REMARK  287  A    between atoms: _737  and  _738
REMARK  288  A    between atoms: _741  and  _743
REMARK  289  A    between atoms: _743  and  _744
REMARK  290  A    between atoms: _743  and  _746
REMARK  291  A    between atoms: _746  and  _747
REMARK  292  A    between atoms: _750  and  _752
REMARK  293  A    between atoms: _752  and  _753
REMARK  294  A    between atoms: _752  and  _755
REMARK  295  A    between atoms: _755  and  _756
REMARK  296  A    between atoms: _797  and  _800
REMARK                            x       y       z     vdW  Elec       q    Type
REMARK                         _______ _______ _______ _____ _____    ______ ____
ROOT
ATOM      1  CA  TYR A   2      15.318  21.815  15.039  0.00  0.00    +0.141 C 
ENDROOT
BRANCH   1   4
ATOM      2  C   PRO A   1      14.479  23.774  16.240  0.00  0.00    +0.239 C 
ATOM      3  O   PRO A   1      14.212  23.120  17.246  0.00  0.00    -0.274 OA
ATOM      4  N   TYR A   2      14.994  23.215  15.151  0.00  0.00    -0.298 N 
ATOM      5  H   TYR A   2      15.175  23.825  14.328  0.00  0.00    +0.150 HD
BRANCH   2   7
ATOM      6  N   PRO A   1      15.030  25.892  15.166  0.00  0.00    -0.210 NA
ATOM      7  CA  PRO A   1      14.247  25.286  16.248  0.00  0.00    +0.149 C 
ATOM      8  CB  PRO A   1      12.803  25.603  15.893  0.00  0.00    +0.028 C 
ATOM      9  CG  PRO A   1      12.813  25.701  14.394  0.00  0.00    +0.021 C 
ATOM     10  CD  PRO A   1      14.125  26.440  14.134  0.00  0.00    +0.089 C 
ENDBRANCH   2   7
ENDBRANCH   1   4
BRANCH   1  11
ATOM     11  C   TYR A   2      16.812  21.528  15.071  0.00  0.00    +0.227 C 
ATOM     12  O   TYR A   2      17.264  20.418  14.760  0.00  0.00    -0.286 OA
ENDBRANCH   1  11
BRANCH   1  13
ATOM     13  CB  TYR A   2      14.660  21.150  13.837  0.00  0.00    +0.054 C 
BRANCH  13  14
ATOM     14  CG  TYR A   2      13.357  20.432  14.129  0.00  0.00    -0.020 A 
ATOM     15  CD2 TYR A   2      13.388  19.158  14.700  0.00  0.00    -0.001 A 
ATOM     16  CE2 TYR A   2      12.217  18.463  14.976  0.00  0.00    +0.036 A 
ATOM     17  CZ  TYR A   2      11.005  19.016  14.651  0.00  0.00    +0.134 A 
ATOM     18  CE1 TYR A   2      10.940  20.278  14.092  0.00  0.00    +0.036 A 
ATOM     19  CD1 TYR A   2      12.113  20.968  13.824  0.00  0.00    -0.001 A 
BRANCH  17  20
ATOM     20  OH  TYR A   2       9.844  18.295  14.884  0.00  0.00    -0.506 OA
ATOM     21  HH  TYR A   2      10.075  17.420  15.285  0.00  0.00    +0.292 HD
ENDBRANCH  17  20
ENDBRANCH  13  14
ENDBRANCH   1  13
TORSDOF 6
REMARK  Name = ../refined-set-2016/1b1h/1b1h_pocket.pdb
REMARK  296 active torsions:
REMARK  status: ('A' for Active; 'I' for Inactive)
REMARK    1  A    between atoms: _1  and  _3
REMARK    2  A    between atoms: _3  and  _4
REMARK    3  A    between atoms: _3  and  _6
REMARK    4  A    between atoms: _6  and  _7
REMARK    5  A    between atoms: _12  and  _14
REMARK    6  A    between atoms: _14  and  _15
REMARK    7  A    between atoms: _17  and  _19
REMARK    8  A    between atoms: _19  and  _20
REMARK    9  A    between atoms: _19  and  _22
REMARK   10  A    between atoms: _22  and  _23
REMARK   11  A    between atoms: _25  and  _27
REMARK   12  A    between atoms: _27  and  _28
REMARK   13  A    between atoms: _27  and  _30
REMARK   14  A    between atoms: _30  and  _31
REMARK   15  A    between atoms: _31  and  _32
REMARK   16  A    between atoms: _37  and  _39
REMARK   17  A    between atoms: _39  and  _40
REMARK   18  A    between atoms: _39  and  _42
REMARK   19  A    between atoms: _42  and  _43
REMARK   20  A    between atoms: _46  and  _48
REMARK   21  A    between atoms: _48  and  _49
REMARK   22  A    between atoms: _48  and  _51
REMARK   23  A    between atoms: _51  and  _52
REMARK   24  A    between atoms: _52  and  _53
REMARK   25  A    between atoms: _56  and  _58
REMARK   26  A    between atoms: _58  and  _59
REMARK   27  A    between atoms: _61  and  _63
REMARK   28  A    between atoms: _63  and  _64
REMARK   29  A    between atoms: _63  and  _66
REMARK   30  A    between atoms: _70  and  _71
REMARK   31  A    between atoms: _76  and  _78
REMARK   32  A    between atoms: _78  and  _79
REMARK   33  A    between atoms: _78  and  _81
REMARK   34  A    between atoms: _81  and  _82
REMARK   35  A    between atoms: _82  and  _83
REMARK   36  A    between atoms: _86  and  _88
REMARK   37  A    between atoms: _88  and  _89
REMARK   38  A    between atoms: _88  and  _91
REMARK   39  A    between atoms: _91  and  _92
REMARK   40  A    between atoms: _94  and  _96
REMARK   41  A    between atoms: _96  and  _97
REMARK   42  A    between atoms: _96  and  _99
REMARK   43  A    between atoms: _99  and  _100
REMARK   44  A    between atoms: _105  and  _107
REMARK   45  A    between atoms: _107  and  _108
REMARK   46  A    between atoms: _107  and  _110
REMARK   47  A    between atoms: _110  and  _111
REMARK   48  A    between atoms: _111  and  _112
REMARK   49  A    between atoms: _112  and  _113
REMARK   50  A    between atoms: _123  and  _124
REMARK   51  A    between atoms: _129  and  _131
REMARK   52  A    between atoms: _131  and  _132
REMARK   53  A    between atoms: _131  and  _134
REMARK   54  A    between atoms: _134  and  _135
REMARK   55  A    between atoms: _140  and  _141
REMARK   56  A    between atoms: _143  and  _145
REMARK   57  A    between atoms: _145  and  _146
REMARK   58  A    between atoms: _145  and  _148
REMARK   59  A    between atoms: _148  and  _149
REMARK   60  A    between atoms: _154  and  _155
REMARK   61  A    between atoms: _157  and  _159
REMARK   62  A    between atoms: _159  and  _160
REMARK   63  A    between atoms: _159  and  _162
REMARK   64  A    between atoms: _165  and  _167
REMARK   65  A    between atoms: _167  and  _168
REMARK   66  A    between atoms: _167  and  _170
REMARK   67  A    between atoms: _170  and  _171
REMARK   68  A    between atoms: _177  and  _178
REMARK   69  A    between atoms: _183  and  _185
REMARK   70  A    between atoms: _185  and  _186
REMARK   71  A    between atoms: _185  and  _188
REMARK   72  A    between atoms: _188  and  _189
REMARK   73  A    between atoms: _191  and  _193
REMARK   74  A    between atoms: _193  and  _194
REMARK   75  A    between atoms: _193  and  _196
REMARK   76  A    between atoms: _196  and  _197
REMARK   77  A    between atoms: _197  and  _198
REMARK   78  A    between atoms: _201  and  _203
REMARK   79  A    between atoms: _203  and  _204
REMARK   80  A    between atoms: _203  and  _206
REMARK   81  A    between atoms: _206  and  _207
REMARK   82  A    between atoms: _212  and  _213
REMARK   83  A    between atoms: _215  and  _217
REMARK   84  A    between atoms: _217  and  _218
REMARK   85  A    between atoms: _217  and  _220
REMARK   86  A    between atoms: _220  and  _221
REMARK   87  A    between atoms: _226  and  _228
REMARK   88  A    between atoms: _228  and  _229
REMARK   89  A    between atoms: _228  and  _231
REMARK   90  A    between atoms: _231  and  _232
REMARK   91  A    between atoms: _237  and  _239
REMARK   92  A    between atoms: _239  and  _240
REMARK   93  A    between atoms: _239  and  _242
REMARK   94  A    between atoms: _242  and  _243
REMARK   95  A    between atoms: _243  and  _244
REMARK   96  A    between atoms: _246  and  _248
REMARK   97  A    between atoms: _248  and  _249
REMARK   98  A    between atoms: _248  and  _251
REMARK   99  A    between atoms: _251  and  _252
REMARK  100  A    between atoms: _257  and  _258
REMARK  101  A    between atoms: _260  and  _262
REMARK  102  A    between atoms: _262  and  _263
REMARK  103  A    between atoms: _262  and  _265
REMARK  104  A    between atoms: _265  and  _266
REMARK  105  A    between atoms: _269  and  _271
REMARK  106  A    between atoms: _271  and  _272
REMARK  107  A    between atoms: _271  and  _274
REMARK  108  A    between atoms: _274  and  _275
REMARK  109  A    between atoms: _275  and  _558
REMARK  110  A    between atoms: _276  and  _278
REMARK  111  A    between atoms: _278  and  _279
REMARK  112  A    between atoms: _278  and  _281
REMARK  113  A    between atoms: _281  and  _282
REMARK  114  A    between atoms: _285  and  _287
REMARK  115  A    between atoms: _287  and  _288
REMARK  116  A    between atoms: _287  and  _290
REMARK  117  A    between atoms: _290  and  _291
REMARK  118  A    between atoms: _296  and  _297
REMARK  119  A    between atoms: _299  and  _301
REMARK  120  A    between atoms: _301  and  _302
REMARK  121  A    between atoms: _301  and  _304
REMARK  122  A    between atoms: _304  and  _305
REMARK  123  A    between atoms: _310  and  _311
REMARK  124  A    between atoms: _313  and  _315
REMARK  125  A    between atoms: _315  and  _316
REMARK  126  A    between atoms: _315  and  _318
REMARK  127  A    between atoms: _318  and  _319
REMARK  128  A    between atoms: _319  and  _320
REMARK  129  A    between atoms: _323  and  _325
REMARK  130  A    between atoms: _325  and  _326
REMARK  131  A    between atoms: _325  and  _328
REMARK  132  A    between atoms: _328  and  _329
REMARK  133  A    between atoms: _334  and  _335
REMARK  134  A    between atoms: _337  and  _339
REMARK  135  A    between atoms: _339  and  _340
REMARK  136  A    between atoms: _339  and  _342
REMARK  137  A    between atoms: _342  and  _343
REMARK  138  A    between atoms: _348  and  _350
REMARK  139  A    between atoms: _350  and  _351
REMARK  140  A    between atoms: _350  and  _353
REMARK  141  A    between atoms: _353  and  _354
REMARK  142  A    between atoms: _357  and  _359
REMARK  143  A    between atoms: _359  and  _360
REMARK  144  A    between atoms: _359  and  _362
REMARK  145  A    between atoms: _362  and  _363
REMARK  146  A    between atoms: _368  and  _370
REMARK  147  A    between atoms: _370  and  _371
REMARK  148  A    between atoms: _370  and  _373
REMARK  149  A    between atoms: _373  and  _374
REMARK  150  A    between atoms: _384  and  _386
REMARK  151  A    between atoms: _386  and  _387
REMARK  152  A    between atoms: _386  and  _389
REMARK  153  A    between atoms: _389  and  _390
REMARK  154  A    between atoms: _390  and  _391
REMARK  155  A    between atoms: _391  and  _392
REMARK  156  A    between atoms: _392  and  _393
REMARK  157  A    between atoms: _397  and  _399
REMARK  158  A    between atoms: _399  and  _400
REMARK  159  A    between atoms: _399  and  _402
REMARK  160  A    between atoms: _402  and  _403
REMARK  161  A    between atoms: _406  and  _408
REMARK  162  A    between atoms: _408  and  _409
REMARK  163  A    between atoms: _408  and  _411
REMARK  164  A    between atoms: _411  and  _412
REMARK  165  A    between atoms: _418  and  _420
REMARK  166  A    between atoms: _420  and  _421
REMARK  167  A    between atoms: _420  and  _423
REMARK  168  A    between atoms: _423  and  _424
REMARK  169  A    between atoms: _427  and  _429
REMARK  170  A    between atoms: _429  and  _430
REMARK  171  A    between atoms: _429  and  _432
REMARK  172  A    between atoms: _432  and  _433
REMARK  173  A    between atoms: _436  and  _438
REMARK  174  A    between atoms: _438  and  _439
REMARK  175  A    between atoms: _438  and  _441
REMARK  176  A    between atoms: _441  and  _442
REMARK  177  A    between atoms: _445  and  _447
REMARK  178  A    between atoms: _447  and  _448
REMARK  179  A    between atoms: _447  and  _450
REMARK  180  A    between atoms: _450  and  _451
REMARK  181  A    between atoms: _451  and  _452
REMARK  182  A    between atoms: _452  and  _453
REMARK  183  A    between atoms: _462  and  _464
REMARK  184  A    between atoms: _464  and  _465
REMARK  185  A    between atoms: _464  and  _467
REMARK  186  A    between atoms: _467  and  _468
REMARK  187  A    between atoms: _473  and  _475
REMARK  188  A    between atoms: _475  and  _476
REMARK  189  A    between atoms: _475  and  _478
REMARK  190  A    between atoms: _478  and  _479
REMARK  191  A    between atoms: _479  and  _480
REMARK  192  A    between atoms: _485  and  _487
REMARK  193  A    between atoms: _487  and  _488
REMARK  194  A    between atoms: _490  and  _492
REMARK  195  A    between atoms: _492  and  _493
REMARK  196  A    between atoms: _492  and  _495
REMARK  197  A    between atoms: _495  and  _496
REMARK  198  A    between atoms: _502  and  _504
REMARK  199  A    between atoms: _504  and  _505
REMARK  200  A    between atoms: _508  and  _510
REMARK  201  A    between atoms: _510  and  _511
REMARK  202  A    between atoms: _510  and  _513
REMARK  203  A    between atoms: _513  and  _514
REMARK  204  A    between atoms: _514  and  _515
REMARK  205  A    between atoms: _515  and  _516
REMARK  206  A    between atoms: _525  and  _527
REMARK  207  A    between atoms: _527  and  _528
REMARK  208  A    between atoms: _531  and  _533
REMARK  209  A    between atoms: _533  and  _534
REMARK  210  A    between atoms: _536  and  _538
REMARK  211  A    between atoms: _538  and  _539
REMARK  212  A    between atoms: _538  and  _541
REMARK  213  A    between atoms: _541  and  _542
REMARK  214  A    between atoms: _552  and  _554
REMARK  215  A    between atoms: _554  and  _555
REMARK  216  A    between atoms: _554  and  _557
REMARK  217  A    between atoms: _557  and  _558
REMARK  218  A    between atoms: _559  and  _561
REMARK  219  A    between atoms: _561  and  _562
REMARK  220  A    between atoms: _565  and  _567
REMARK  221  A    between atoms: _567  and  _568
REMARK  222  A    between atoms: _567  and  _570
REMARK  223  A    between atoms: _570  and  _571
REMARK  224  A    between atoms: _574  and  _576
REMARK  225  A    between atoms: _576  and  _577
REMARK  226  A    between atoms: _576  and  _579
REMARK  227  A    between atoms: _579  and  _580
REMARK  228  A    between atoms: _585  and  _586
REMARK  229  A    between atoms: _588  and  _590
REMARK  230  A    between atoms: _590  and  _591
REMARK  231  A    between atoms: _590  and  _593
REMARK  232  A    between atoms: _593  and  _594
REMARK  233  A    between atoms: _596  and  _598
REMARK  234  A    between atoms: _598  and  _599
REMARK  235  A    between atoms: _598  and  _601
REMARK  236  A    between atoms: _601  and  _602
REMARK  237  A    between atoms: _608  and  _610
REMARK  238  A    between atoms: _610  and  _611
REMARK  239  A    between atoms: _610  and  _613
REMARK  240  A    between atoms: _613  and  _614
REMARK  241  A    between atoms: _617  and  _619
REMARK  242  A    between atoms: _619  and  _620
REMARK  243  A    between atoms: _619  and  _622
REMARK  244  A    between atoms: _622  and  _623
REMARK  245  A    between atoms: _625  and  _627
REMARK  246  A    between atoms: _627  and  _628
REMARK  247  A    between atoms: _627  and  _630
REMARK  248  A    between atoms: _630  and  _631
REMARK  249  A    between atoms: _636  and  _638
REMARK  250  A    between atoms: _638  and  _639
REMARK  251  A    between atoms: _638  and  _641
REMARK  252  A    between atoms: _641  and  _642
REMARK  253  A    between atoms: _647  and  _649
REMARK  254  A    between atoms: _649  and  _650
REMARK  255  A    between atoms: _649  and  _652
REMARK  256  A    between atoms: _652  and  _653
REMARK  257  A    between atoms: _656  and  _658
REMARK  258  A    between atoms: _658  and  _659
REMARK  259  A    between atoms: _662  and  _664
REMARK  260  A    between atoms: _664  and  _665
REMARK  261  A    between atoms: _664  and  _667
REMARK  262  A    between atoms: _667  and  _668
REMARK  263  A    between atoms: _673  and  _674
REMARK  264  A    between atoms: _676  and  _678
REMARK  265  A    between atoms: _678  and  _679
REMARK  266  A    between atoms: _678  and  _681
REMARK  267  A    between atoms: _681  and  _682
REMARK  268  A    between atoms: _687  and  _688
REMARK  269  A    between atoms: _690  and  _692
REMARK  270  A    between atoms: _692  and  _693
REMARK  271  A    between atoms: _692  and  _695
REMARK  272  A    between atoms: _698  and  _700
REMARK  273  A    between atoms: _700  and  _701
REMARK  274  A    between atoms: _700  and  _703
REMARK  275  A    between atoms: _703  and  _704
REMARK  276  A    between atoms: _709  and  _711
REMARK  277  A    between atoms: _711  and  _712
REMARK  278  A    between atoms: _715  and  _717
REMARK  279  A    between atoms: _717  and  _718
REMARK  280  A    between atoms: _717  and  _720
REMARK  281  A    between atoms: _720  and  _721
REMARK  282  A    between atoms: _721  and  _722
REMARK  283  A    between atoms: _722  and  _723
REMARK  284  A    between atoms: _732  and  _734
REMARK  285  A    between atoms: _734  and  _735
REMARK  286  A    between atoms: _734  and  _737
REMARK  287  A    between atoms: _737  and  _738
REMARK  288  A    between atoms: _741  and  _743
REMARK  289  A    between atoms: _743  and  _744
REMARK  290  A    between atoms: _743  and  _746
REMARK  291  A    between atoms: _746  and  _747
REMARK  292  A    between atoms: _750  and  _752
REMARK  293  A    between atoms: _752  and  _753
REMARK  294  A    between atoms: _752  and  _755
REMARK  295  A    between atoms: _755  and  _756
REMARK  296  A    between atoms: _797  and  _800
REMARK                            x       y       z     vdW  Elec       q    Type
REMARK                         _______ _______ _______ _____ _____    ______ ____
ROOT
ATOM      1  CG  TYR A   1      15.987  16.116  13.738  0.00  0.00    -0.020 A 
ATOM      2  CD2 TYR A   1      14.863  15.690  14.437  0.00  0.00    -0.001 A 
ATOM      3  CE2 TYR A   1      14.076  14.650  13.944  0.00  0.00    +0.036 A 
ATOM      4  CZ  TYR A   1      14.416  14.038  12.760  0.00  0.00    +0.134 A 
ATOM      5  CE1 TYR A   1      15.545  14.430  12.074  0.00  0.00    +0.036 A 
ATOM      6  CD1 TYR A   1      16.299  15.486  12.555  0.00  0.00    -0.001 A 
ENDROOT
BRANCH   4   7
ATOM      7  OH  TYR A   1      13.625  12.998  12.291  0.00  0.00    -0.506 OA
ATOM      8  HH  TYR A   1      14.166  12.170  12.241  0.00  0.00    +0.292 HD
ENDBRANCH   4   7
BRANCH   1   9
ATOM      9  CB  TYR A   1      16.820  17.253  14.303  0.00  0.00    +0.051 C 
BRANCH   9  10
ATOM     10  CA  TYR A   1      17.469  16.953  15.648  0.00  0.00    +0.137 C 
BRANCH  10  11
ATOM     11  N   TYR A   1      17.717  18.183  16.402  0.00  0.00    -0.239 NA
ATOM     12  H   TYR A   1      17.490  19.103  15.973  0.00  0.00    +0.142 HD
ENDBRANCH  10  11
BRANCH  10  13
ATOM     13  C   TYR A   1      18.805  16.226  15.443  0.00  0.00    +0.224 C 
ATOM     14  O   TYR A   1      18.834  14.999  15.390  0.00  0.00    -0.287 OA
ENDBRANCH  10  13
ENDBRANCH   9  10
ENDBRANCH   1   9
TORSDOF 5
REMARK  Name = ../refined-set-2016/1b1h/1b1h_pocket.pdb
REMARK  296 active torsions:
REMARK  status: ('A' for Active; 'I' for Inactive)
REMARK    1  A    between atoms: _1  and  _3
REMARK    2  A    between atoms: _3  and  _4
REMARK    3  A    between atoms: _3  and  _6
REMARK    4  A    between atoms: _6  and  _7
REMARK    5  A    between atoms: _12  and  _14
REMARK    6  A    between atoms: _14  and  _15
REMARK    7  A    between atoms: _17  and  _19
REMARK    8  A    between atoms: _19  and  _20
REMARK    9  A    between atoms: _19  and  _22
REMARK   10  A    between atoms: _22  and  _23
REMARK   11  A    between atoms: _25  and  _27
REMARK   12  A    between atoms: _27  and  _28
REMARK   13  A    between atoms: _27  and  _30
REMARK   14  A    between atoms: _30  and  _31
REMARK   15  A    between atoms: _31  and  _32
REMARK   16  A    between atoms: _37  and  _39
REMARK   17  A    between atoms: _39  and  _40
REMARK   18  A    between atoms: _39  and  _42
REMARK   19  A    between atoms: _42  and  _43
REMARK   20  A    between atoms: _46  and  _48
REMARK   21  A    between atoms: _48  and  _49
REMARK   22  A    between atoms: _48  and  _51
REMARK   23  A    between atoms: _51  and  _52
REMARK   24  A    between atoms: _52  and  _53
REMARK   25  A    between atoms: _56  and  _58
REMARK   26  A    between atoms: _58  and  _59
REMARK   27  A    between atoms: _61  and  _63
REMARK   28  A    between atoms: _63  and  _64
REMARK   29  A    between atoms: _63  and  _66
REMARK   30  A    between atoms: _70  and  _71
REMARK   31  A    between atoms: _76  and  _78
REMARK   32  A    between atoms: _78  and  _79
REMARK   33  A    between atoms: _78  and  _81
REMARK   34  A    between atoms: _81  and  _82
REMARK   35  A    between atoms: _82  and  _83
REMARK   36  A    between atoms: _86  and  _88
REMARK   37  A    between atoms: _88  and  _89
REMARK   38  A    between atoms: _88  and  _91
REMARK   39  A    between atoms: _91  and  _92
REMARK   40  A    between atoms: _94  and  _96
REMARK   41  A    between atoms: _96  and  _97
REMARK   42  A    between atoms: _96  and  _99
REMARK   43  A    between atoms: _99  and  _100
REMARK   44  A    between atoms: _105  and  _107
REMARK   45  A    between atoms: _107  and  _108
REMARK   46  A    between atoms: _107  and  _110
REMARK   47  A    between atoms: _110  and  _111
REMARK   48  A    between atoms: _111  and  _112
REMARK   49  A    between atoms: _112  and  _113
REMARK   50  A    between atoms: _123  and  _124
REMARK   51  A    between atoms: _129  and  _131
REMARK   52  A    between atoms: _131  and  _132
REMARK   53  A    between atoms: _131  and  _134
REMARK   54  A    between atoms: _134  and  _135
REMARK   55  A    between atoms: _140  and  _141
REMARK   56  A    between atoms: _143  and  _145
REMARK   57  A    between atoms: _145  and  _146
REMARK   58  A    between atoms: _145  and  _148
REMARK   59  A    between atoms: _148  and  _149
REMARK   60  A    between atoms: _154  and  _155
REMARK   61  A    between atoms: _157  and  _159
REMARK   62  A    between atoms: _159  and  _160
REMARK   63  A    between atoms: _159  and  _162
REMARK   64  A    between atoms: _165  and  _167
REMARK   65  A    between atoms: _167  and  _168
REMARK   66  A    between atoms: _167  and  _170
REMARK   67  A    between atoms: _170  and  _171
REMARK   68  A    between atoms: _177  and  _178
REMARK   69  A    between atoms: _183  and  _185
REMARK   70  A    between atoms: _185  and  _186
REMARK   71  A    between atoms: _185  and  _188
REMARK   72  A    between atoms: _188  and  _189
REMARK   73  A    between atoms: _191  and  _193
REMARK   74  A    between atoms: _193  and  _194
REMARK   75  A    between atoms: _193  and  _196
REMARK   76  A    between atoms: _196  and  _197
REMARK   77  A    between atoms: _197  and  _198
REMARK   78  A    between atoms: _201  and  _203
REMARK   79  A    between atoms: _203  and  _204
REMARK   80  A    between atoms: _203  and  _206
REMARK   81  A    between atoms: _206  and  _207
REMARK   82  A    between atoms: _212  and  _213
REMARK   83  A    between atoms: _215  and  _217
REMARK   84  A    between atoms: _217  and  _218
REMARK   85  A    between atoms: _217  and  _220
REMARK   86  A    between atoms: _220  and  _221
REMARK   87  A    between atoms: _226  and  _228
REMARK   88  A    between atoms: _228  and  _229
REMARK   89  A    between atoms: _228  and  _231
REMARK   90  A    between atoms: _231  and  _232
REMARK   91  A    between atoms: _237  and  _239
REMARK   92  A    between atoms: _239  and  _240
REMARK   93  A    between atoms: _239  and  _242
REMARK   94  A    between atoms: _242  and  _243
REMARK   95  A    between atoms: _243  and  _244
REMARK   96  A    between atoms: _246  and  _248
REMARK   97  A    between atoms: _248  and  _249
REMARK   98  A    between atoms: _248  and  _251
REMARK   99  A    between atoms: _251  and  _252
REMARK  100  A    between atoms: _257  and  _258
REMARK  101  A    between atoms: _260  and  _262
REMARK  102  A    between atoms: _262  and  _263
REMARK  103  A    between atoms: _262  and  _265
REMARK  104  A    between atoms: _265  and  _266
REMARK  105  A    between atoms: _269  and  _271
REMARK  106  A    between atoms: _271  and  _272
REMARK  107  A    between atoms: _271  and  _274
REMARK  108  A    between atoms: _274  and  _275
REMARK  109  A    between atoms: _275  and  _558
REMARK  110  A    between atoms: _276  and  _278
REMARK  111  A    between atoms: _278  and  _279
REMARK  112  A    between atoms: _278  and  _281
REMARK  113  A    between atoms: _281  and  _282
REMARK  114  A    between atoms: _285  and  _287
REMARK  115  A    between atoms: _287  and  _288
REMARK  116  A    between atoms: _287  and  _290
REMARK  117  A    between atoms: _290  and  _291
REMARK  118  A    between atoms: _296  and  _297
REMARK  119  A    between atoms: _299  and  _301
REMARK  120  A    between atoms: _301  and  _302
REMARK  121  A    between atoms: _301  and  _304
REMARK  122  A    between atoms: _304  and  _305
REMARK  123  A    between atoms: _310  and  _311
REMARK  124  A    between atoms: _313  and  _315
REMARK  125  A    between atoms: _315  and  _316
REMARK  126  A    between atoms: _315  and  _318
REMARK  127  A    between atoms: _318  and  _319
REMARK  128  A    between atoms: _319  and  _320
REMARK  129  A    between atoms: _323  and  _325
REMARK  130  A    between atoms: _325  and  _326
REMARK  131  A    between atoms: _325  and  _328
REMARK  132  A    between atoms: _328  and  _329
REMARK  133  A    between atoms: _334  and  _335
REMARK  134  A    between atoms: _337  and  _339
REMARK  135  A    between atoms: _339  and  _340
REMARK  136  A    between atoms: _339  and  _342
REMARK  137  A    between atoms: _342  and  _343
REMARK  138  A    between atoms: _348  and  _350
REMARK  139  A    between atoms: _350  and  _351
REMARK  140  A    between atoms: _350  and  _353
REMARK  141  A    between atoms: _353  and  _354
REMARK  142  A    between atoms: _357  and  _359
REMARK  143  A    between atoms: _359  and  _360
REMARK  144  A    between atoms: _359  and  _362
REMARK  145  A    between atoms: _362  and  _363
REMARK  146  A    between atoms: _368  and  _370
REMARK  147  A    between atoms: _370  and  _371
REMARK  148  A    between atoms: _370  and  _373
REMARK  149  A    between atoms: _373  and  _374
REMARK  150  A    between atoms: _384  and  _386
REMARK  151  A    between atoms: _386  and  _387
REMARK  152  A    between atoms: _386  and  _389
REMARK  153  A    between atoms: _389  and  _390
REMARK  154  A    between atoms: _390  and  _391
REMARK  155  A    between atoms: _391  and  _392
REMARK  156  A    between atoms: _392  and  _393
REMARK  157  A    between atoms: _397  and  _399
REMARK  158  A    between atoms: _399  and  _400
REMARK  159  A    between atoms: _399  and  _402
REMARK  160  A    between atoms: _402  and  _403
REMARK  161  A    between atoms: _406  and  _408
REMARK  162  A    between atoms: _408  and  _409
REMARK  163  A    between atoms: _408  and  _411
REMARK  164  A    between atoms: _411  and  _412
REMARK  165  A    between atoms: _418  and  _420
REMARK  166  A    between atoms: _420  and  _421
REMARK  167  A    between atoms: _420  and  _423
REMARK  168  A    between atoms: _423  and  _424
REMARK  169  A    between atoms: _427  and  _429
REMARK  170  A    between atoms: _429  and  _430
REMARK  171  A    between atoms: _429  and  _432
REMARK  172  A    between atoms: _432  and  _433
REMARK  173  A    between atoms: _436  and  _438
REMARK  174  A    between atoms: _438  and  _439
REMARK  175  A    between atoms: _438  and  _441
REMARK  176  A    between atoms: _441  and  _442
REMARK  177  A    between atoms: _445  and  _447
REMARK  178  A    between atoms: _447  and  _448
REMARK  179  A    between atoms: _447  and  _450
REMARK  180  A    between atoms: _450  and  _451
REMARK  181  A    between atoms: _451  and  _452
REMARK  182  A    between atoms: _452  and  _453
REMARK  183  A    between atoms: _462  and  _464
REMARK  184  A    between atoms: _464  and  _465
REMARK  185  A    between atoms: _464  and  _467
REMARK  186  A    between atoms: _467  and  _468
REMARK  187  A    between atoms: _473  and  _475
REMARK  188  A    between atoms: _475  and  _476
REMARK  189  A    between atoms: _475  and  _478
REMARK  190  A    between atoms: _478  and  _479
REMARK  191  A    between atoms: _479  and  _480
REMARK  192  A    between atoms: _485  and  _487
REMARK  193  A    between atoms: _487  and  _488
REMARK  194  A    between atoms: _490  and  _492
REMARK  195  A    between atoms: _492  and  _493
REMARK  196  A    between atoms: _492  and  _495
REMARK  197  A    between atoms: _495  and  _496
REMARK  198  A    between atoms: _502  and  _504
REMARK  199  A    between atoms: _504  and  _505
REMARK  200  A    between atoms: _508  and  _510
REMARK  201  A    between atoms: _510  and  _511
REMARK  202  A    between atoms: _510  and  _513
REMARK  203  A    between atoms: _513  and  _514
REMARK  204  A    between atoms: _514  and  _515
REMARK  205  A    between atoms: _515  and  _516
REMARK  206  A    between atoms: _525  and  _527
REMARK  207  A    between atoms: _527  and  _528
REMARK  208  A    between atoms: _531  and  _533
REMARK  209  A    between atoms: _533  and  _534
REMARK  210  A    between atoms: _536  and  _538
REMARK  211  A    between atoms: _538  and  _539
REMARK  212  A    between atoms: _538  and  _541
REMARK  213  A    between atoms: _541  and  _542
REMARK  214  A    between atoms: _552  and  _554
REMARK  215  A    between atoms: _554  and  _555
REMARK  216  A    between atoms: _554  and  _557
REMARK  217  A    between atoms: _557  and  _558
REMARK  218  A    between atoms: _559  and  _561
REMARK  219  A    between atoms: _561  and  _562
REMARK  220  A    between atoms: _565  and  _567
REMARK  221  A    between atoms: _567  and  _568
REMARK  222  A    between atoms: _567  and  _570
REMARK  223  A    between atoms: _570  and  _571
REMARK  224  A    between atoms: _574  and  _576
REMARK  225  A    between atoms: _576  and  _577
REMARK  226  A    between atoms: _576  and  _579
REMARK  227  A    between atoms: _579  and  _580
REMARK  228  A    between atoms: _585  and  _586
REMARK  229  A    between atoms: _588  and  _590
REMARK  230  A    between atoms: _590  and  _591
REMARK  231  A    between atoms: _590  and  _593
REMARK  232  A    between atoms: _593  and  _594
REMARK  233  A    between atoms: _596  and  _598
REMARK  234  A    between atoms: _598  and  _599
REMARK  235  A    between atoms: _598  and  _601
REMARK  236  A    between atoms: _601  and  _602
REMARK  237  A    between atoms: _608  and  _610
REMARK  238  A    between atoms: _610  and  _611
REMARK  239  A    between atoms: _610  and  _613
REMARK  240  A    between atoms: _613  and  _614
REMARK  241  A    between atoms: _617  and  _619
REMARK  242  A    between atoms: _619  and  _620
REMARK  243  A    between atoms: _619  and  _622
REMARK  244  A    between atoms: _622  and  _623
REMARK  245  A    between atoms: _625  and  _627
REMARK  246  A    between atoms: _627  and  _628
REMARK  247  A    between atoms: _627  and  _630
REMARK  248  A    between atoms: _630  and  _631
REMARK  249  A    between atoms: _636  and  _638
REMARK  250  A    between atoms: _638  and  _639
REMARK  251  A    between atoms: _638  and  _641
REMARK  252  A    between atoms: _641  and  _642
REMARK  253  A    between atoms: _647  and  _649
REMARK  254  A    between atoms: _649  and  _650
REMARK  255  A    between atoms: _649  and  _652
REMARK  256  A    between atoms: _652  and  _653
REMARK  257  A    between atoms: _656  and  _658
REMARK  258  A    between atoms: _658  and  _659
REMARK  259  A    between atoms: _662  and  _664
REMARK  260  A    between atoms: _664  and  _665
REMARK  261  A    between atoms: _664  and  _667
REMARK  262  A    between atoms: _667  and  _668
REMARK  263  A    between atoms: _673  and  _674
REMARK  264  A    between atoms: _676  and  _678
REMARK  265  A    between atoms: _678  and  _679
REMARK  266  A    between atoms: _678  and  _681
REMARK  267  A    between atoms: _681  and  _682
REMARK  268  A    between atoms: _687  and  _688
REMARK  269  A    between atoms: _690  and  _692
REMARK  270  A    between atoms: _692  and  _693
REMARK  271  A    between atoms: _692  and  _695
REMARK  272  A    between atoms: _698  and  _700
REMARK  273  A    between atoms: _700  and  _701
REMARK  274  A    between atoms: _700  and  _703
REMARK  275  A    between atoms: _703  and  _704
REMARK  276  A    between atoms: _709  and  _711
REMARK  277  A    between atoms: _711  and  _712
REMARK  278  A    between atoms: _715  and  _717
REMARK  279  A    between atoms: _717  and  _718
REMARK  280  A    between atoms: _717  and  _720
REMARK  281  A    between atoms: _720  and  _721
REMARK  282  A    between atoms: _721  and  _722
REMARK  283  A    between atoms: _722  and  _723
REMARK  284  A    between atoms: _732  and  _734
REMARK  285  A    between atoms: _734  and  _735
REMARK  286  A    between atoms: _734  and  _737
REMARK  287  A    between atoms: _737  and  _738
REMARK  288  A    between atoms: _741  and  _743
REMARK  289  A    between atoms: _743  and  _744
REMARK  290  A    between atoms: _743  and  _746
REMARK  291  A    between atoms: _746  and  _747
REMARK  292  A    between atoms: _750  and  _752
REMARK  293  A    between atoms: _752  and  _753
REMARK  294  A    between atoms: _752  and  _755
REMARK  295  A    between atoms: _755  and  _756
REMARK  296  A    between atoms: _797  and  _800
REMARK                            x       y       z     vdW  Elec       q    Type
REMARK                         _______ _______ _______ _____ _____    ______ ____
ROOT
ATOM      1  CA  HIS A   2      12.176  14.907   8.356  0.00  0.00    +0.155 C 
ENDROOT
BRANCH   1   2
ATOM      2  C   HIS A   2      12.704  16.096   7.612  0.00  0.00    +0.244 C 
ATOM      3  N   PRO A   3      11.958  17.198   7.506  0.00  0.00    -0.272 N 
ATOM      4  CD  PRO A   3      10.566  17.379   8.016  0.00  0.00    +0.094 C 
ATOM      5  CG  PRO A   3      10.034  18.515   7.148  0.00  0.00    +0.024 C 
ATOM      6  CB  PRO A   3      11.230  19.367   6.876  0.00  0.00    +0.031 C 
ATOM      7  CA  PRO A   3      12.376  18.361   6.750  0.00  0.00    +0.152 C 
ATOM      8  O   HIS A   2      13.836  16.052   7.096  0.00  0.00    -0.273 OA
BRANCH   7   9
ATOM      9  C   PRO A   3      13.653  19.007   7.215  0.00  0.00    +0.241 C 
ATOM     10  N   SER A   4      13.980  18.964   8.512  0.00  0.00    -0.296 N 
ATOM     11  H   SER A   4      13.357  18.477   9.187  0.00  0.00    +0.150 HD
ATOM     12  O   PRO A   3      14.451  19.475   6.372  0.00  0.00    -0.273 OA
BRANCH  10  13
ATOM     13  CA  SER A   4      15.217  19.603   8.988  0.00  0.00    +0.166 C 
BRANCH  13  14
ATOM     14  C   SER A   4      16.487  19.049   8.359  0.00  0.00    +0.229 C 
ATOM     15  O   SER A   4      17.487  19.774   8.275  0.00  0.00    -0.286 OA
ENDBRANCH  13  14
BRANCH  13  16
ATOM     16  CB  SER A   4      15.300  19.527  10.510  0.00  0.00    +0.165 C 
BRANCH  16  17
ATOM     17  OG  SER A   4      15.473  18.157  10.914  0.00  0.00    -0.380 OA
ATOM     18  H   SER A   4      14.703  17.621  10.598  0.00  0.00    +0.211 HD
ENDBRANCH  16  17
ENDBRANCH  13  16
ENDBRANCH  10  13
ENDBRANCH   7   9
ENDBRANCH   1   2
BRANCH   1  20
ATOM     19  C   VAL A   1      12.127  13.055   6.730  0.00  0.00    +0.238 C 
ATOM     20  N   HIS A   2      12.609  13.611   7.815  0.00  0.00    -0.297 N 
ATOM     21  H   HIS A   2      13.352  13.097   8.331  0.00  0.00    +0.150 HD
ATOM     22  O   VAL A   1      11.384  13.707   5.976  0.00  0.00    -0.274 OA
BRANCH  19  23
ATOM     23  CA  VAL A   1      12.590  11.665   6.292  0.00  0.00    +0.145 C 
BRANCH  23  24
ATOM     24  CB  VAL A   1      11.439  10.654   6.340  0.00  0.00    +0.025 C 
ATOM     25  CG2 VAL A   1      10.954  10.477   7.779  0.00  0.00    +0.002 C 
ATOM     26  CG1 VAL A   1      11.912   9.310   5.777  0.00  0.00    +0.002 C 
ENDBRANCH  23  24
BRANCH  23  27
ATOM     27  N   VAL A   1      13.711  11.221   7.113  0.00  0.00    -0.238 NA
ATOM     28  H   VAL A   1      13.523  10.631   7.948  0.00  0.00    +0.142 HD
ENDBRANCH  23  27
ENDBRANCH  19  23
ENDBRANCH   1  20
BRANCH   1  29
ATOM     29  CB  HIS A   2      12.643  14.896   9.825  0.00  0.00    +0.076 C 
BRANCH  29  30
ATOM     30  CG  HIS A   2      12.084  16.012  10.640  0.00  0.00    +0.082 A 
ATOM     31  CD2 HIS A   2      10.838  16.150  11.172  0.00  0.00    +0.115 A 
ATOM     32  NE2 HIS A   2      10.831  17.369  11.821  0.00  0.00    -0.221 NA
ATOM     33  CE1 HIS A   2      12.012  17.959  11.649  0.00  0.00    +0.199 A 
ATOM     34  ND1 HIS A   2      12.808  17.154  10.955  0.00  0.00    -0.227 NA
ENDBRANCH  29  30
ENDBRANCH   1  29
TORSDOF 12
REMARK  Name = ../refined-set-2016/1b1h/1b1h_pocket.pdb
REMARK  296 active torsions:
REMARK  status: ('A' for Active; 'I' for Inactive)
REMARK    1  A    between atoms: _1  and  _3
REMARK    2  A    between atoms: _3  and  _4
REMARK    3  A    between atoms: _3  and  _6
REMARK    4  A    between atoms: _6  and  _7
REMARK    5  A    between atoms: _12  and  _14
REMARK    6  A    between atoms: _14  and  _15
REMARK    7  A    between atoms: _17  and  _19
REMARK    8  A    between atoms: _19  and  _20
REMARK    9  A    between atoms: _19  and  _22
REMARK   10  A    between atoms: _22  and  _23
REMARK   11  A    between atoms: _25  and  _27
REMARK   12  A    between atoms: _27  and  _28
REMARK   13  A    between atoms: _27  and  _30
REMARK   14  A    between atoms: _30  and  _31
REMARK   15  A    between atoms: _31  and  _32
REMARK   16  A    between atoms: _37  and  _39
REMARK   17  A    between atoms: _39  and  _40
REMARK   18  A    between atoms: _39  and  _42
REMARK   19  A    between atoms: _42  and  _43
REMARK   20  A    between atoms: _46  and  _48
REMARK   21  A    between atoms: _48  and  _49
REMARK   22  A    between atoms: _48  and  _51
REMARK   23  A    between atoms: _51  and  _52
REMARK   24  A    between atoms: _52  and  _53
REMARK   25  A    between atoms: _56  and  _58
REMARK   26  A    between atoms: _58  and  _59
REMARK   27  A    between atoms: _61  and  _63
REMARK   28  A    between atoms: _63  and  _64
REMARK   29  A    between atoms: _63  and  _66
REMARK   30  A    between atoms: _70  and  _71
REMARK   31  A    between atoms: _76  and  _78
REMARK   32  A    between atoms: _78  and  _79
REMARK   33  A    between atoms: _78  and  _81
REMARK   34  A    between atoms: _81  and  _82
REMARK   35  A    between atoms: _82  and  _83
REMARK   36  A    between atoms: _86  and  _88
REMARK   37  A    between atoms: _88  and  _89
REMARK   38  A    between atoms: _88  and  _91
REMARK   39  A    between atoms: _91  and  _92
REMARK   40  A    between atoms: _94  and  _96
REMARK   41  A    between atoms: _96  and  _97
REMARK   42  A    between atoms: _96  and  _99
REMARK   43  A    between atoms: _99  and  _100
REMARK   44  A    between atoms: _105  and  _107
REMARK   45  A    between atoms: _107  and  _108
REMARK   46  A    between atoms: _107  and  _110
REMARK   47  A    between atoms: _110  and  _111
REMARK   48  A    between atoms: _111  and  _112
REMARK   49  A    between atoms: _112  and  _113
REMARK   50  A    between atoms: _123  and  _124
REMARK   51  A    between atoms: _129  and  _131
REMARK   52  A    between atoms: _131  and  _132
REMARK   53  A    between atoms: _131  and  _134
REMARK   54  A    between atoms: _134  and  _135
REMARK   55  A    between atoms: _140  and  _141
REMARK   56  A    between atoms: _143  and  _145
REMARK   57  A    between atoms: _145  and  _146
REMARK   58  A    between atoms: _145  and  _148
REMARK   59  A    between atoms: _148  and  _149
REMARK   60  A    between atoms: _154  and  _155
REMARK   61  A    between atoms: _157  and  _159
REMARK   62  A    between atoms: _159  and  _160
REMARK   63  A    between atoms: _159  and  _162
REMARK   64  A    between atoms: _165  and  _167
REMARK   65  A    between atoms: _167  and  _168
REMARK   66  A    between atoms: _167  and  _170
REMARK   67  A    between atoms: _170  and  _171
REMARK   68  A    between atoms: _177  and  _178
REMARK   69  A    between atoms: _183  and  _185
REMARK   70  A    between atoms: _185  and  _186
REMARK   71  A    between atoms: _185  and  _188
REMARK   72  A    between atoms: _188  and  _189
REMARK   73  A    between atoms: _191  and  _193
REMARK   74  A    between atoms: _193  and  _194
REMARK   75  A    between atoms: _193  and  _196
REMARK   76  A    between atoms: _196  and  _197
REMARK   77  A    between atoms: _197  and  _198
REMARK   78  A    between atoms: _201  and  _203
REMARK   79  A    between atoms: _203  and  _204
REMARK   80  A    between atoms: _203  and  _206
REMARK   81  A    between atoms: _206  and  _207
REMARK   82  A    between atoms: _212  and  _213
REMARK   83  A    between atoms: _215  and  _217
REMARK   84  A    between atoms: _217  and  _218
REMARK   85  A    between atoms: _217  and  _220
REMARK   86  A    between atoms: _220  and  _221
REMARK   87  A    between atoms: _226  and  _228
REMARK   88  A    between atoms: _228  and  _229
REMARK   89  A    between atoms: _228  and  _231
REMARK   90  A    between atoms: _231  and  _232
REMARK   91  A    between atoms: _237  and  _239
REMARK   92  A    between atoms: _239  and  _240
REMARK   93  A    between atoms: _239  and  _242
REMARK   94  A    between atoms: _242  and  _243
REMARK   95  A    between atoms: _243  and  _244
REMARK   96  A    between atoms: _246  and  _248
REMARK   97  A    between atoms: _248  and  _249
REMARK   98  A    between atoms: _248  and  _251
REMARK   99  A    between atoms: _251  and  _252
REMARK  100  A    between atoms: _257  and  _258
REMARK  101  A    between atoms: _260  and  _262
REMARK  102  A    between atoms: _262  and  _263
REMARK  103  A    between atoms: _262  and  _265
REMARK  104  A    between atoms: _265  and  _266
REMARK  105  A    between atoms: _269  and  _271
REMARK  106  A    between atoms: _271  and  _272
REMARK  107  A    between atoms: _271  and  _274
REMARK  108  A    between atoms: _274  and  _275
REMARK  109  A    between atoms: _275  and  _558
REMARK  110  A    between atoms: _276  and  _278
REMARK  111  A    between atoms: _278  and  _279
REMARK  112  A    between atoms: _278  and  _281
REMARK  113  A    between atoms: _281  and  _282
REMARK  114  A    between atoms: _285  and  _287
REMARK  115  A    between atoms: _287  and  _288
REMARK  116  A    between atoms: _287  and  _290
REMARK  117  A    between atoms: _290  and  _291
REMARK  118  A    between atoms: _296  and  _297
REMARK  119  A    between atoms: _299  and  _301
REMARK  120  A    between atoms: _301  and  _302
REMARK  121  A    between atoms: _301  and  _304
REMARK  122  A    between atoms: _304  and  _305
REMARK  123  A    between atoms: _310  and  _311
REMARK  124  A    between atoms: _313  and  _315
REMARK  125  A    between atoms: _315  and  _316
REMARK  126  A    between atoms: _315  and  _318
REMARK  127  A    between atoms: _318  and  _319
REMARK  128  A    between atoms: _319  and  _320
REMARK  129  A    between atoms: _323  and  _325
REMARK  130  A    between atoms: _325  and  _326
REMARK  131  A    between atoms: _325  and  _328
REMARK  132  A    between atoms: _328  and  _329
REMARK  133  A    between atoms: _334  and  _335
REMARK  134  A    between atoms: _337  and  _339
REMARK  135  A    between atoms: _339  and  _340
REMARK  136  A    between atoms: _339  and  _342
REMARK  137  A    between atoms: _342  and  _343
REMARK  138  A    between atoms: _348  and  _350
REMARK  139  A    between atoms: _350  and  _351
REMARK  140  A    between atoms: _350  and  _353
REMARK  141  A    between atoms: _353  and  _354
REMARK  142  A    between atoms: _357  and  _359
REMARK  143  A    between atoms: _359  and  _360
REMARK  144  A    between atoms: _359  and  _362
REMARK  145  A    between atoms: _362  and  _363
REMARK  146  A    between atoms: _368  and  _370
REMARK  147  A    between atoms: _370  and  _371
REMARK  148  A    between atoms: _370  and  _373
REMARK  149  A    between atoms: _373  and  _374
REMARK  150  A    between atoms: _384  and  _386
REMARK  151  A    between atoms: _386  and  _387
REMARK  152  A    between atoms: _386  and  _389
REMARK  153  A    between atoms: _389  and  _390
REMARK  154  A    between atoms: _390  and  _391
REMARK  155  A    between atoms: _391  and  _392
REMARK  156  A    between atoms: _392  and  _393
REMARK  157  A    between atoms: _397  and  _399
REMARK  158  A    between atoms: _399  and  _400
REMARK  159  A    between atoms: _399  and  _402
REMARK  160  A    between atoms: _402  and  _403
REMARK  161  A    between atoms: _406  and  _408
REMARK  162  A    between atoms: _408  and  _409
REMARK  163  A    between atoms: _408  and  _411
REMARK  164  A    between atoms: _411  and  _412
REMARK  165  A    between atoms: _418  and  _420
REMARK  166  A    between atoms: _420  and  _421
REMARK  167  A    between atoms: _420  and  _423
REMARK  168  A    between atoms: _423  and  _424
REMARK  169  A    between atoms: _427  and  _429
REMARK  170  A    between atoms: _429  and  _430
REMARK  171  A    between atoms: _429  and  _432
REMARK  172  A    between atoms: _432  and  _433
REMARK  173  A    between atoms: _436  and  _438
REMARK  174  A    between atoms: _438  and  _439
REMARK  175  A    between atoms: _438  and  _441
REMARK  176  A    between atoms: _441  and  _442
REMARK  177  A    between atoms: _445  and  _447
REMARK  178  A    between atoms: _447  and  _448
REMARK  179  A    between atoms: _447  and  _450
REMARK  180  A    between atoms: _450  and  _451
REMARK  181  A    between atoms: _451  and  _452
REMARK  182  A    between atoms: _452  and  _453
REMARK  183  A    between atoms: _462  and  _464
REMARK  184  A    between atoms: _464  and  _465
REMARK  185  A    between atoms: _464  and  _467
REMARK  186  A    between atoms: _467  and  _468
REMARK  187  A    between atoms: _473  and  _475
REMARK  188  A    between atoms: _475  and  _476
REMARK  189  A    between atoms: _475  and  _478
REMARK  190  A    between atoms: _478  and  _479
REMARK  191  A    between atoms: _479  and  _480
REMARK  192  A    between atoms: _485  and  _487
REMARK  193  A    between atoms: _487  and  _488
REMARK  194  A    between atoms: _490  and  _492
REMARK  195  A    between atoms: _492  and  _493
REMARK  196  A    between atoms: _492  and  _495
REMARK  197  A    between atoms: _495  and  _496
REMARK  198  A    between atoms: _502  and  _504
REMARK  199  A    between atoms: _504  and  _505
REMARK  200  A    between atoms: _508  and  _510
REMARK  201  A    between atoms: _510  and  _511
REMARK  202  A    between atoms: _510  and  _513
REMARK  203  A    between atoms: _513  and  _514
REMARK  204  A    between atoms: _514  and  _515
REMARK  205  A    between atoms: _515  and  _516
REMARK  206  A    between atoms: _525  and  _527
REMARK  207  A    between atoms: _527  and  _528
REMARK  208  A    between atoms: _531  and  _533
REMARK  209  A    between atoms: _533  and  _534
REMARK  210  A    between atoms: _536  and  _538
REMARK  211  A    between atoms: _538  and  _539
REMARK  212  A    between atoms: _538  and  _541
REMARK  213  A    between atoms: _541  and  _542
REMARK  214  A    between atoms: _552  and  _554
REMARK  215  A    between atoms: _554  and  _555
REMARK  216  A    between atoms: _554  and  _557
REMARK  217  A    between atoms: _557  and  _558
REMARK  218  A    between atoms: _559  and  _561
REMARK  219  A    between atoms: _561  and  _562
REMARK  220  A    between atoms: _565  and  _567
REMARK  221  A    between atoms: _567  and  _568
REMARK  222  A    between atoms: _567  and  _570
REMARK  223  A    between atoms: _570  and  _571
REMARK  224  A    between atoms: _574  and  _576
REMARK  225  A    between atoms: _576  and  _577
REMARK  226  A    between atoms: _576  and  _579
REMARK  227  A    between atoms: _579  and  _580
REMARK  228  A    between atoms: _585  and  _586
REMARK  229  A    between atoms: _588  and  _590
REMARK  230  A    between atoms: _590  and  _591
REMARK  231  A    between atoms: _590  and  _593
REMARK  232  A    between atoms: _593  and  _594
REMARK  233  A    between atoms: _596  and  _598
REMARK  234  A    between atoms: _598  and  _599
REMARK  235  A    between atoms: _598  and  _601
REMARK  236  A    between atoms: _601  and  _602
REMARK  237  A    between atoms: _608  and  _610
REMARK  238  A    between atoms: _610  and  _611
REMARK  239  A    between atoms: _610  and  _613
REMARK  240  A    between atoms: _613  and  _614
REMARK  241  A    between atoms: _617  and  _619
REMARK  242  A    between atoms: _619  and  _620
REMARK  243  A    between atoms: _619  and  _622
REMARK  244  A    between atoms: _622  and  _623
REMARK  245  A    between atoms: _625  and  _627
REMARK  246  A    between atoms: _627  and  _628
REMARK  247  A    between atoms: _627  and  _630
REMARK  248  A    between atoms: _630  and  _631
REMARK  249  A    between atoms: _636  and  _638
REMARK  250  A    between atoms: _638  and  _639
REMARK  251  A    between atoms: _638  and  _641
REMARK  252  A    between atoms: _641  and  _642
REMARK  253  A    between atoms: _647  and  _649
REMARK  254  A    between atoms: _649  and  _650
REMARK  255  A    between atoms: _649  and  _652
REMARK  256  A    between atoms: _652  and  _653
REMARK  257  A    between atoms: _656  and  _658
REMARK  258  A    between atoms: _658  and  _659
REMARK  259  A    between atoms: _662  and  _664
REMARK  260  A    between atoms: _664  and  _665
REMARK  261  A    between atoms: _664  and  _667
REMARK  262  A    between atoms: _667  and  _668
REMARK  263  A    between atoms: _673  and  _674
REMARK  264  A    between atoms: _676  and  _678
REMARK  265  A    between atoms: _678  and  _679
REMARK  266  A    between atoms: _678  and  _681
REMARK  267  A    between atoms: _681  and  _682
REMARK  268  A    between atoms: _687  and  _688
REMARK  269  A    between atoms: _690  and  _692
REMARK  270  A    between atoms: _692  and  _693
REMARK  271  A    between atoms: _692  and  _695
REMARK  272  A    between atoms: _698  and  _700
REMARK  273  A    between atoms: _700  and  _701
REMARK  274  A    between atoms: _700  and  _703
REMARK  275  A    between atoms: _703  and  _704
REMARK  276  A    between atoms: _709  and  _711
REMARK  277  A    between atoms: _711  and  _712
REMARK  278  A    between atoms: _715  and  _717
REMARK  279  A    between atoms: _717  and  _718
REMARK  280  A    between atoms: _717  and  _720
REMARK  281  A    between atoms: _720  and  _721
REMARK  282  A    between atoms: _721  and  _722
REMARK  283  A    between atoms: _722  and  _723
REMARK  284  A    between atoms: _732  and  _734
REMARK  285  A    between atoms: _734  and  _735
REMARK  286  A    between atoms: _734  and  _737
REMARK  287  A    between atoms: _737  and  _738
REMARK  288  A    between atoms: _741  and  _743
REMARK  289  A    between atoms: _743  and  _744
REMARK  290  A    between atoms: _743  and  _746
REMARK  291  A    between atoms: _746  and  _747
REMARK  292  A    between atoms: _750  and  _752
REMARK  293  A    between atoms: _752  and  _753
REMARK  294  A    between atoms: _752  and  _755
REMARK  295  A    between atoms: _755  and  _756
REMARK  296  A    between atoms: _797  and  _800
REMARK                            x       y       z     vdW  Elec       q    Type
REMARK                         _______ _______ _______ _____ _____    ______ ____
ROOT
ATOM      1  CA  GLU A   1     -12.236  23.584  10.486  0.00  0.00    +0.134 C 
ENDROOT
BRANCH   1   2
ATOM      2  N   GLU A   1     -11.976  24.942  10.982  0.00  0.00    -0.239 NA
ATOM      3  H   GLU A   1     -11.902  25.111  12.006  0.00  0.00    +0.142 HD
ENDBRANCH   1   2
BRANCH   1   4
ATOM      4  C   GLU A   1     -13.625  23.509   9.848  0.00  0.00    +0.224 C 
ATOM      5  O   GLU A   1     -13.887  22.682   8.978  0.00  0.00    -0.287 OA
ENDBRANCH   1   4
BRANCH   1   6
ATOM      6  CB  GLU A   1     -12.109  22.575  11.627  0.00  0.00    +0.037 C 
BRANCH   6   7
ATOM      7  CG  GLU A   1     -10.695  22.509  12.229  0.00  0.00    +0.116 C 
BRANCH   7   8
ATOM      8  CD  GLU A   1     -10.408  23.528  13.301  0.00  0.00    +0.365 C 
ATOM      9  OE2 GLU A   1      -9.247  23.561  13.792  0.00  0.00    -0.246 OA
ATOM     10  OE1 GLU A   1     -11.329  24.288  13.669  0.00  0.00    -0.246 OA
ENDBRANCH   7   8
ENDBRANCH   6   7
ENDBRANCH   1   6
TORSDOF 5
REMARK  Name = ../refined-set-2016/1b1h/1b1h_pocket.pdb
REMARK  296 active torsions:
REMARK  status: ('A' for Active; 'I' for Inactive)
REMARK    1  A    between atoms: _1  and  _3
REMARK    2  A    between atoms: _3  and  _4
REMARK    3  A    between atoms: _3  and  _6
REMARK    4  A    between atoms: _6  and  _7
REMARK    5  A    between atoms: _12  and  _14
REMARK    6  A    between atoms: _14  and  _15
REMARK    7  A    between atoms: _17  and  _19
REMARK    8  A    between atoms: _19  and  _20
REMARK    9  A    between atoms: _19  and  _22
REMARK   10  A    between atoms: _22  and  _23
REMARK   11  A    between atoms: _25  and  _27
REMARK   12  A    between atoms: _27  and  _28
REMARK   13  A    between atoms: _27  and  _30
REMARK   14  A    between atoms: _30  and  _31
REMARK   15  A    between atoms: _31  and  _32
REMARK   16  A    between atoms: _37  and  _39
REMARK   17  A    between atoms: _39  and  _40
REMARK   18  A    between atoms: _39  and  _42
REMARK   19  A    between atoms: _42  and  _43
REMARK   20  A    between atoms: _46  and  _48
REMARK   21  A    between atoms: _48  and  _49
REMARK   22  A    between atoms: _48  and  _51
REMARK   23  A    between atoms: _51  and  _52
REMARK   24  A    between atoms: _52  and  _53
REMARK   25  A    between atoms: _56  and  _58
REMARK   26  A    between atoms: _58  and  _59
REMARK   27  A    between atoms: _61  and  _63
REMARK   28  A    between atoms: _63  and  _64
REMARK   29  A    between atoms: _63  and  _66
REMARK   30  A    between atoms: _70  and  _71
REMARK   31  A    between atoms: _76  and  _78
REMARK   32  A    between atoms: _78  and  _79
REMARK   33  A    between atoms: _78  and  _81
REMARK   34  A    between atoms: _81  and  _82
REMARK   35  A    between atoms: _82  and  _83
REMARK   36  A    between atoms: _86  and  _88
REMARK   37  A    between atoms: _88  and  _89
REMARK   38  A    between atoms: _88  and  _91
REMARK   39  A    between atoms: _91  and  _92
REMARK   40  A    between atoms: _94  and  _96
REMARK   41  A    between atoms: _96  and  _97
REMARK   42  A    between atoms: _96  and  _99
REMARK   43  A    between atoms: _99  and  _100
REMARK   44  A    between atoms: _105  and  _107
REMARK   45  A    between atoms: _107  and  _108
REMARK   46  A    between atoms: _107  and  _110
REMARK   47  A    between atoms: _110  and  _111
REMARK   48  A    between atoms: _111  and  _112
REMARK   49  A    between atoms: _112  and  _113
REMARK   50  A    between atoms: _123  and  _124
REMARK   51  A    between atoms: _129  and  _131
REMARK   52  A    between atoms: _131  and  _132
REMARK   53  A    between atoms: _131  and  _134
REMARK   54  A    between atoms: _134  and  _135
REMARK   55  A    between atoms: _140  and  _141
REMARK   56  A    between atoms: _143  and  _145
REMARK   57  A    between atoms: _145  and  _146
REMARK   58  A    between atoms: _145  and  _148
REMARK   59  A    between atoms: _148  and  _149
REMARK   60  A    between atoms: _154  and  _155
REMARK   61  A    between atoms: _157  and  _159
REMARK   62  A    between atoms: _159  and  _160
REMARK   63  A    between atoms: _159  and  _162
REMARK   64  A    between atoms: _165  and  _167
REMARK   65  A    between atoms: _167  and  _168
REMARK   66  A    between atoms: _167  and  _170
REMARK   67  A    between atoms: _170  and  _171
REMARK   68  A    between atoms: _177  and  _178
REMARK   69  A    between atoms: _183  and  _185
REMARK   70  A    between atoms: _185  and  _186
REMARK   71  A    between atoms: _185  and  _188
REMARK   72  A    between atoms: _188  and  _189
REMARK   73  A    between atoms: _191  and  _193
REMARK   74  A    between atoms: _193  and  _194
REMARK   75  A    between atoms: _193  and  _196
REMARK   76  A    between atoms: _196  and  _197
REMARK   77  A    between atoms: _197  and  _198
REMARK   78  A    between atoms: _201  and  _203
REMARK   79  A    between atoms: _203  and  _204
REMARK   80  A    between atoms: _203  and  _206
REMARK   81  A    between atoms: _206  and  _207
REMARK   82  A    between atoms: _212  and  _213
REMARK   83  A    between atoms: _215  and  _217
REMARK   84  A    between atoms: _217  and  _218
REMARK   85  A    between atoms: _217  and  _220
REMARK   86  A    between atoms: _220  and  _221
REMARK   87  A    between atoms: _226  and  _228
REMARK   88  A    between atoms: _228  and  _229
REMARK   89  A    between atoms: _228  and  _231
REMARK   90  A    between atoms: _231  and  _232
REMARK   91  A    between atoms: _237  and  _239
REMARK   92  A    between atoms: _239  and  _240
REMARK   93  A    between atoms: _239  and  _242
REMARK   94  A    between atoms: _242  and  _243
REMARK   95  A    between atoms: _243  and  _244
REMARK   96  A    between atoms: _246  and  _248
REMARK   97  A    between atoms: _248  and  _249
REMARK   98  A    between atoms: _248  and  _251
REMARK   99  A    between atoms: _251  and  _252
REMARK  100  A    between atoms: _257  and  _258
REMARK  101  A    between atoms: _260  and  _262
REMARK  102  A    between atoms: _262  and  _263
REMARK  103  A    between atoms: _262  and  _265
REMARK  104  A    between atoms: _265  and  _266
REMARK  105  A    between atoms: _269  and  _271
REMARK  106  A    between atoms: _271  and  _272
REMARK  107  A    between atoms: _271  and  _274
REMARK  108  A    between atoms: _274  and  _275
REMARK  109  A    between atoms: _275  and  _558
REMARK  110  A    between atoms: _276  and  _278
REMARK  111  A    between atoms: _278  and  _279
REMARK  112  A    between atoms: _278  and  _281
REMARK  113  A    between atoms: _281  and  _282
REMARK  114  A    between atoms: _285  and  _287
REMARK  115  A    between atoms: _287  and  _288
REMARK  116  A    between atoms: _287  and  _290
REMARK  117  A    between atoms: _290  and  _291
REMARK  118  A    between atoms: _296  and  _297
REMARK  119  A    between atoms: _299  and  _301
REMARK  120  A    between atoms: _301  and  _302
REMARK  121  A    between atoms: _301  and  _304
REMARK  122  A    between atoms: _304  and  _305
REMARK  123  A    between atoms: _310  and  _311
REMARK  124  A    between atoms: _313  and  _315
REMARK  125  A    between atoms: _315  and  _316
REMARK  126  A    between atoms: _315  and  _318
REMARK  127  A    between atoms: _318  and  _319
REMARK  128  A    between atoms: _319  and  _320
REMARK  129  A    between atoms: _323  and  _325
REMARK  130  A    between atoms: _325  and  _326
REMARK  131  A    between atoms: _325  and  _328
REMARK  132  A    between atoms: _328  and  _329
REMARK  133  A    between atoms: _334  and  _335
REMARK  134  A    between atoms: _337  and  _339
REMARK  135  A    between atoms: _339  and  _340
REMARK  136  A    between atoms: _339  and  _342
REMARK  137  A    between atoms: _342  and  _343
REMARK  138  A    between atoms: _348  and  _350
REMARK  139  A    between atoms: _350  and  _351
REMARK  140  A    between atoms: _350  and  _353
REMARK  141  A    between atoms: _353  and  _354
REMARK  142  A    between atoms: _357  and  _359
REMARK  143  A    between atoms: _359  and  _360
REMARK  144  A    between atoms: _359  and  _362
REMARK  145  A    between atoms: _362  and  _363
REMARK  146  A    between atoms: _368  and  _370
REMARK  147  A    between atoms: _370  and  _371
REMARK  148  A    between atoms: _370  and  _373
REMARK  149  A    between atoms: _373  and  _374
REMARK  150  A    between atoms: _384  and  _386
REMARK  151  A    between atoms: _386  and  _387
REMARK  152  A    between atoms: _386  and  _389
REMARK  153  A    between atoms: _389  and  _390
REMARK  154  A    between atoms: _390  and  _391
REMARK  155  A    between atoms: _391  and  _392
REMARK  156  A    between atoms: _392  and  _393
REMARK  157  A    between atoms: _397  and  _399
REMARK  158  A    between atoms: _399  and  _400
REMARK  159  A    between atoms: _399  and  _402
REMARK  160  A    between atoms: _402  and  _403
REMARK  161  A    between atoms: _406  and  _408
REMARK  162  A    between atoms: _408  and  _409
REMARK  163  A    between atoms: _408  and  _411
REMARK  164  A    between atoms: _411  and  _412
REMARK  165  A    between atoms: _418  and  _420
REMARK  166  A    between atoms: _420  and  _421
REMARK  167  A    between atoms: _420  and  _423
REMARK  168  A    between atoms: _423  and  _424
REMARK  169  A    between atoms: _427  and  _429
REMARK  170  A    between atoms: _429  and  _430
REMARK  171  A    between atoms: _429  and  _432
REMARK  172  A    between atoms: _432  and  _433
REMARK  173  A    between atoms: _436  and  _438
REMARK  174  A    between atoms: _438  and  _439
REMARK  175  A    between atoms: _438  and  _441
REMARK  176  A    between atoms: _441  and  _442
REMARK  177  A    between atoms: _445  and  _447
REMARK  178  A    between atoms: _447  and  _448
REMARK  179  A    between atoms: _447  and  _450
REMARK  180  A    between atoms: _450  and  _451
REMARK  181  A    between atoms: _451  and  _452
REMARK  182  A    between atoms: _452  and  _453
REMARK  183  A    between atoms: _462  and  _464
REMARK  184  A    between atoms: _464  and  _465
REMARK  185  A    between atoms: _464  and  _467
REMARK  186  A    between atoms: _467  and  _468
REMARK  187  A    between atoms: _473  and  _475
REMARK  188  A    between atoms: _475  and  _476
REMARK  189  A    between atoms: _475  and  _478
REMARK  190  A    between atoms: _478  and  _479
REMARK  191  A    between atoms: _479  and  _480
REMARK  192  A    between atoms: _485  and  _487
REMARK  193  A    between atoms: _487  and  _488
REMARK  194  A    between atoms: _490  and  _492
REMARK  195  A    between atoms: _492  and  _493
REMARK  196  A    between atoms: _492  and  _495
REMARK  197  A    between atoms: _495  and  _496
REMARK  198  A    between atoms: _502  and  _504
REMARK  199  A    between atoms: _504  and  _505
REMARK  200  A    between atoms: _508  and  _510
REMARK  201  A    between atoms: _510  and  _511
REMARK  202  A    between atoms: _510  and  _513
REMARK  203  A    between atoms: _513  and  _514
REMARK  204  A    between atoms: _514  and  _515
REMARK  205  A    between atoms: _515  and  _516
REMARK  206  A    between atoms: _525  and  _527
REMARK  207  A    between atoms: _527  and  _528
REMARK  208  A    between atoms: _531  and  _533
REMARK  209  A    between atoms: _533  and  _534
REMARK  210  A    between atoms: _536  and  _538
REMARK  211  A    between atoms: _538  and  _539
REMARK  212  A    between atoms: _538  and  _541
REMARK  213  A    between atoms: _541  and  _542
REMARK  214  A    between atoms: _552  and  _554
REMARK  215  A    between atoms: _554  and  _555
REMARK  216  A    between atoms: _554  and  _557
REMARK  217  A    between atoms: _557  and  _558
REMARK  218  A    between atoms: _559  and  _561
REMARK  219  A    between atoms: _561  and  _562
REMARK  220  A    between atoms: _565  and  _567
REMARK  221  A    between atoms: _567  and  _568
REMARK  222  A    between atoms: _567  and  _570
REMARK  223  A    between atoms: _570  and  _571
REMARK  224  A    between atoms: _574  and  _576
REMARK  225  A    between atoms: _576  and  _577
REMARK  226  A    between atoms: _576  and  _579
REMARK  227  A    between atoms: _579  and  _580
REMARK  228  A    between atoms: _585  and  _586
REMARK  229  A    between atoms: _588  and  _590
REMARK  230  A    between atoms: _590  and  _591
REMARK  231  A    between atoms: _590  and  _593
REMARK  232  A    between atoms: _593  and  _594
REMARK  233  A    between atoms: _596  and  _598
REMARK  234  A    between atoms: _598  and  _599
REMARK  235  A    between atoms: _598  and  _601
REMARK  236  A    between atoms: _601  and  _602
REMARK  237  A    between atoms: _608  and  _610
REMARK  238  A    between atoms: _610  and  _611
REMARK  239  A    between atoms: _610  and  _613
REMARK  240  A    between atoms: _613  and  _614
REMARK  241  A    between atoms: _617  and  _619
REMARK  242  A    between atoms: _619  and  _620
REMARK  243  A    between atoms: _619  and  _622
REMARK  244  A    between atoms: _622  and  _623
REMARK  245  A    between atoms: _625  and  _627
REMARK  246  A    between atoms: _627  and  _628
REMARK  247  A    between atoms: _627  and  _630
REMARK  248  A    between atoms: _630  and  _631
REMARK  249  A    between atoms: _636  and  _638
REMARK  250  A    between atoms: _638  and  _639
REMARK  251  A    between atoms: _638  and  _641
REMARK  252  A    between atoms: _641  and  _642
REMARK  253  A    between atoms: _647  and  _649
REMARK  254  A    between atoms: _649  and  _650
REMARK  255  A    between atoms: _649  and  _652
REMARK  256  A    between atoms: _652  and  _653
REMARK  257  A    between atoms: _656  and  _658
REMARK  258  A    between atoms: _658  and  _659
REMARK  259  A    between atoms: _662  and  _664
REMARK  260  A    between atoms: _664  and  _665
REMARK  261  A    between atoms: _664  and  _667
REMARK  262  A    between atoms: _667  and  _668
REMARK  263  A    between atoms: _673  and  _674
REMARK  264  A    between atoms: _676  and  _678
REMARK  265  A    between atoms: _678  and  _679
REMARK  266  A    between atoms: _678  and  _681
REMARK  267  A    between atoms: _681  and  _682
REMARK  268  A    between atoms: _687  and  _688
REMARK  269  A    between atoms: _690  and  _692
REMARK  270  A    between atoms: _692  and  _693
REMARK  271  A    between atoms: _692  and  _695
REMARK  272  A    between atoms: _698  and  _700
REMARK  273  A    between atoms: _700  and  _701
REMARK  274  A    between atoms: _700  and  _703
REMARK  275  A    between atoms: _703  and  _704
REMARK  276  A    between atoms: _709  and  _711
REMARK  277  A    between atoms: _711  and  _712
REMARK  278  A    between atoms: _715  and  _717
REMARK  279  A    between atoms: _717  and  _718
REMARK  280  A    between atoms: _717  and  _720
REMARK  281  A    between atoms: _720  and  _721
REMARK  282  A    between atoms: _721  and  _722
REMARK  283  A    between atoms: _722  and  _723
REMARK  284  A    between atoms: _732  and  _734
REMARK  285  A    between atoms: _734  and  _735
REMARK  286  A    between atoms: _734  and  _737
REMARK  287  A    between atoms: _737  and  _738
REMARK  288  A    between atoms: _741  and  _743
REMARK  289  A    between atoms: _743  and  _744
REMARK  290  A    between atoms: _743  and  _746
REMARK  291  A    between atoms: _746  and  _747
REMARK  292  A    between atoms: _750  and  _752
REMARK  293  A    between atoms: _752  and  _753
REMARK  294  A    between atoms: _752  and  _755
REMARK  295  A    between atoms: _755  and  _756
REMARK  296  A    between atoms: _797  and  _800
REMARK                            x       y       z     vdW  Elec       q    Type
REMARK                         _______ _______ _______ _____ _____    ______ ____
ROOT
ATOM      1  CA  ASN A   2      -6.775  16.897   9.475  0.00  0.00    +0.158 C 
ENDROOT
BRANCH   1   3
ATOM      2  C   TYR A   1      -7.186  18.506   7.734  0.00  0.00    +0.239 C 
ATOM      3  N   ASN A   2      -6.315  17.970   8.591  0.00  0.00    -0.297 N 
ATOM      4  H   ASN A   2      -5.332  18.307   8.630  0.00  0.00    +0.150 HD
ATOM      5  O   TYR A   1      -8.374  18.144   7.698  0.00  0.00    -0.274 OA
BRANCH   2   6
ATOM      6  CA  TYR A   1      -6.676  19.575   6.760  0.00  0.00    +0.149 C 
BRANCH   6   7
ATOM      7  N   TYR A   1      -7.781  19.761   5.808  0.00  0.00    -0.238 NA
ATOM      8  H   TYR A   1      -8.380  20.610   5.850  0.00  0.00    +0.142 HD
ENDBRANCH   6   7
BRANCH   6   9
ATOM      9  CB  TYR A   1      -6.347  20.867   7.477  0.00  0.00    +0.053 C 
BRANCH   9  10
ATOM     10  CG  TYR A   1      -5.167  20.792   8.417  0.00  0.00    -0.020 A 
ATOM     11  CD2 TYR A   1      -5.314  21.088   9.762  0.00  0.00    -0.001 A 
ATOM     12  CE2 TYR A   1      -4.224  21.022  10.625  0.00  0.00    +0.036 A 
ATOM     13  CZ  TYR A   1      -2.993  20.673  10.117  0.00  0.00    +0.134 A 
ATOM     14  CE1 TYR A   1      -2.822  20.388   8.776  0.00  0.00    +0.036 A 
ATOM     15  CD1 TYR A   1      -3.909  20.447   7.924  0.00  0.00    -0.001 A 
BRANCH  13  16
ATOM     16  OH  TYR A   1      -1.931  20.587  10.985  0.00  0.00    -0.506 OA
ATOM     17  HH  TYR A   1      -1.789  21.466  11.418  0.00  0.00    +0.292 HD
ENDBRANCH  13  16
ENDBRANCH   9  10
ENDBRANCH   6   9
ENDBRANCH   2   6
ENDBRANCH   1   3
BRANCH   1  18
ATOM     18  C   ASN A   2      -6.960  17.389  10.895  0.00  0.00    +0.241 C 
ATOM     19  O   ASN A   2      -6.303  16.949  11.824  0.00  0.00    -0.273 OA
ATOM     20  N   ASN A   3      -7.839  18.341  11.058  0.00  0.00    -0.297 N 
ATOM     21  H   ASN A   3      -8.155  18.781  10.170  0.00  0.00    +0.150 HD
BRANCH  20  22
ATOM     22  CA  ASN A   3      -8.454  18.896  12.239  0.00  0.00    +0.158 C 
BRANCH  22  23
ATOM     23  C   ASN A   3      -9.946  18.932  11.843  0.00  0.00    +0.241 C 
ATOM     24  N   MET A   4     -10.841  18.208  12.504  0.00  0.00    -0.298 N 
ATOM     25  H   MET A   4     -10.518  17.613  13.293  0.00  0.00    +0.150 HD
ATOM     26  O   ASN A   3     -10.211  19.582  10.822  0.00  0.00    -0.273 OA
BRANCH  24  27
ATOM     27  CA  MET A   4     -12.256  18.215  12.168  0.00  0.00    +0.138 C 
BRANCH  27  28
ATOM     28  C   MET A   4     -13.082  19.029  13.171  0.00  0.00    +0.227 C 
ATOM     29  O   MET A   4     -12.802  19.066  14.371  0.00  0.00    -0.286 OA
ENDBRANCH  27  28
BRANCH  27  30
ATOM     30  CB  MET A   4     -12.777  16.776  12.106  0.00  0.00    +0.039 C 
BRANCH  30  31
ATOM     31  CG  MET A   4     -12.243  15.942  10.960  0.00  0.00    +0.060 C 
BRANCH  31  32
ATOM     32  SD  MET A   4     -13.026  16.343   9.377  0.00  0.00    -0.139 S 
ATOM     33  CE  MET A   4     -11.891  17.567   8.729  0.00  0.00    +0.069 C 
ENDBRANCH  31  32
ENDBRANCH  30  31
ENDBRANCH  27  30
ENDBRANCH  24  27
ENDBRANCH  22  23
BRANCH  22  34
ATOM     34  CB  ASN A   3      -8.006  20.319  12.571  0.00  0.00    +0.114 C 
BRANCH  34  35
ATOM     35  CG  ASN A   3      -6.732  20.473  13.369  0.00  0.00    +0.222 C 
ATOM     36  OD1 ASN A   3      -6.193  19.513  13.911  0.00  0.00    -0.275 OA
ATOM     37  ND2 ASN A   3      -6.184  21.699  13.476  0.00  0.00    -0.329 N 
ATOM     38 HD21 ASN A   3      -5.306  21.831  14.017  0.00  0.00    +0.145 HD
ATOM     39 HD22 ASN A   3      -6.639  22.514  13.017  0.00  0.00    +0.145 HD
ENDBRANCH  34  35
ENDBRANCH  22  34
ENDBRANCH  20  22
ENDBRANCH   1  18
BRANCH   1  40
ATOM     40  CB  ASN A   2      -5.876  15.676   9.395  0.00  0.00    +0.114 C 
BRANCH  40  41
ATOM     41  CG  ASN A   2      -4.410  15.981   9.589  0.00  0.00    +0.222 C 
ATOM     42  ND2 ASN A   2      -3.594  14.958   9.803  0.00  0.00    -0.329 N 
ATOM     43 HD21 ASN A   2      -2.576  15.124   9.933  0.00  0.00    +0.145 HD
ATOM     44 HD22 ASN A   2      -3.972  13.990   9.841  0.00  0.00    +0.145 HD
ATOM     45  OD1 ASN A   2      -3.960  17.122   9.545  0.00  0.00    -0.275 OA
ENDBRANCH  40  41
ENDBRANCH   1  40
TORSDOF 18
REMARK  Name = ../refined-set-2016/1b1h/1b1h_pocket.pdb
REMARK  296 active torsions:
REMARK  status: ('A' for Active; 'I' for Inactive)
REMARK    1  A    between atoms: _1  and  _3
REMARK    2  A    between atoms: _3  and  _4
REMARK    3  A    between atoms: _3  and  _6
REMARK    4  A    between atoms: _6  and  _7
REMARK    5  A    between atoms: _12  and  _14
REMARK    6  A    between atoms: _14  and  _15
REMARK    7  A    between atoms: _17  and  _19
REMARK    8  A    between atoms: _19  and  _20
REMARK    9  A    between atoms: _19  and  _22
REMARK   10  A    between atoms: _22  and  _23
REMARK   11  A    between atoms: _25  and  _27
REMARK   12  A    between atoms: _27  and  _28
REMARK   13  A    between atoms: _27  and  _30
REMARK   14  A    between atoms: _30  and  _31
REMARK   15  A    between atoms: _31  and  _32
REMARK   16  A    between atoms: _37  and  _39
REMARK   17  A    between atoms: _39  and  _40
REMARK   18  A    between atoms: _39  and  _42
REMARK   19  A    between atoms: _42  and  _43
REMARK   20  A    between atoms: _46  and  _48
REMARK   21  A    between atoms: _48  and  _49
REMARK   22  A    between atoms: _48  and  _51
REMARK   23  A    between atoms: _51  and  _52
REMARK   24  A    between atoms: _52  and  _53
REMARK   25  A    between atoms: _56  and  _58
REMARK   26  A    between atoms: _58  and  _59
REMARK   27  A    between atoms: _61  and  _63
REMARK   28  A    between atoms: _63  and  _64
REMARK   29  A    between atoms: _63  and  _66
REMARK   30  A    between atoms: _70  and  _71
REMARK   31  A    between atoms: _76  and  _78
REMARK   32  A    between atoms: _78  and  _79
REMARK   33  A    between atoms: _78  and  _81
REMARK   34  A    between atoms: _81  and  _82
REMARK   35  A    between atoms: _82  and  _83
REMARK   36  A    between atoms: _86  and  _88
REMARK   37  A    between atoms: _88  and  _89
REMARK   38  A    between atoms: _88  and  _91
REMARK   39  A    between atoms: _91  and  _92
REMARK   40  A    between atoms: _94  and  _96
REMARK   41  A    between atoms: _96  and  _97
REMARK   42  A    between atoms: _96  and  _99
REMARK   43  A    between atoms: _99  and  _100
REMARK   44  A    between atoms: _105  and  _107
REMARK   45  A    between atoms: _107  and  _108
REMARK   46  A    between atoms: _107  and  _110
REMARK   47  A    between atoms: _110  and  _111
REMARK   48  A    between atoms: _111  and  _112
REMARK   49  A    between atoms: _112  and  _113
REMARK   50  A    between atoms: _123  and  _124
REMARK   51  A    between atoms: _129  and  _131
REMARK   52  A    between atoms: _131  and  _132
REMARK   53  A    between atoms: _131  and  _134
REMARK   54  A    between atoms: _134  and  _135
REMARK   55  A    between atoms: _140  and  _141
REMARK   56  A    between atoms: _143  and  _145
REMARK   57  A    between atoms: _145  and  _146
REMARK   58  A    between atoms: _145  and  _148
REMARK   59  A    between atoms: _148  and  _149
REMARK   60  A    between atoms: _154  and  _155
REMARK   61  A    between atoms: _157  and  _159
REMARK   62  A    between atoms: _159  and  _160
REMARK   63  A    between atoms: _159  and  _162
REMARK   64  A    between atoms: _165  and  _167
REMARK   65  A    between atoms: _167  and  _168
REMARK   66  A    between atoms: _167  and  _170
REMARK   67  A    between atoms: _170  and  _171
REMARK   68  A    between atoms: _177  and  _178
REMARK   69  A    between atoms: _183  and  _185
REMARK   70  A    between atoms: _185  and  _186
REMARK   71  A    between atoms: _185  and  _188
REMARK   72  A    between atoms: _188  and  _189
REMARK   73  A    between atoms: _191  and  _193
REMARK   74  A    between atoms: _193  and  _194
REMARK   75  A    between atoms: _193  and  _196
REMARK   76  A    between atoms: _196  and  _197
REMARK   77  A    between atoms: _197  and  _198
REMARK   78  A    between atoms: _201  and  _203
REMARK   79  A    between atoms: _203  and  _204
REMARK   80  A    between atoms: _203  and  _206
REMARK   81  A    between atoms: _206  and  _207
REMARK   82  A    between atoms: _212  and  _213
REMARK   83  A    between atoms: _215  and  _217
REMARK   84  A    between atoms: _217  and  _218
REMARK   85  A    between atoms: _217  and  _220
REMARK   86  A    between atoms: _220  and  _221
REMARK   87  A    between atoms: _226  and  _228
REMARK   88  A    between atoms: _228  and  _229
REMARK   89  A    between atoms: _228  and  _231
REMARK   90  A    between atoms: _231  and  _232
REMARK   91  A    between atoms: _237  and  _239
REMARK   92  A    between atoms: _239  and  _240
REMARK   93  A    between atoms: _239  and  _242
REMARK   94  A    between atoms: _242  and  _243
REMARK   95  A    between atoms: _243  and  _244
REMARK   96  A    between atoms: _246  and  _248
REMARK   97  A    between atoms: _248  and  _249
REMARK   98  A    between atoms: _248  and  _251
REMARK   99  A    between atoms: _251  and  _252
REMARK  100  A    between atoms: _257  and  _258
REMARK  101  A    between atoms: _260  and  _262
REMARK  102  A    between atoms: _262  and  _263
REMARK  103  A    between atoms: _262  and  _265
REMARK  104  A    between atoms: _265  and  _266
REMARK  105  A    between atoms: _269  and  _271
REMARK  106  A    between atoms: _271  and  _272
REMARK  107  A    between atoms: _271  and  _274
REMARK  108  A    between atoms: _274  and  _275
REMARK  109  A    between atoms: _275  and  _558
REMARK  110  A    between atoms: _276  and  _278
REMARK  111  A    between atoms: _278  and  _279
REMARK  112  A    between atoms: _278  and  _281
REMARK  113  A    between atoms: _281  and  _282
REMARK  114  A    between atoms: _285  and  _287
REMARK  115  A    between atoms: _287  and  _288
REMARK  116  A    between atoms: _287  and  _290
REMARK  117  A    between atoms: _290  and  _291
REMARK  118  A    between atoms: _296  and  _297
REMARK  119  A    between atoms: _299  and  _301
REMARK  120  A    between atoms: _301  and  _302
REMARK  121  A    between atoms: _301  and  _304
REMARK  122  A    between atoms: _304  and  _305
REMARK  123  A    between atoms: _310  and  _311
REMARK  124  A    between atoms: _313  and  _315
REMARK  125  A    between atoms: _315  and  _316
REMARK  126  A    between atoms: _315  and  _318
REMARK  127  A    between atoms: _318  and  _319
REMARK  128  A    between atoms: _319  and  _320
REMARK  129  A    between atoms: _323  and  _325
REMARK  130  A    between atoms: _325  and  _326
REMARK  131  A    between atoms: _325  and  _328
REMARK  132  A    between atoms: _328  and  _329
REMARK  133  A    between atoms: _334  and  _335
REMARK  134  A    between atoms: _337  and  _339
REMARK  135  A    between atoms: _339  and  _340
REMARK  136  A    between atoms: _339  and  _342
REMARK  137  A    between atoms: _342  and  _343
REMARK  138  A    between atoms: _348  and  _350
REMARK  139  A    between atoms: _350  and  _351
REMARK  140  A    between atoms: _350  and  _353
REMARK  141  A    between atoms: _353  and  _354
REMARK  142  A    between atoms: _357  and  _359
REMARK  143  A    between atoms: _359  and  _360
REMARK  144  A    between atoms: _359  and  _362
REMARK  145  A    between atoms: _362  and  _363
REMARK  146  A    between atoms: _368  and  _370
REMARK  147  A    between atoms: _370  and  _371
REMARK  148  A    between atoms: _370  and  _373
REMARK  149  A    between atoms: _373  and  _374
REMARK  150  A    between atoms: _384  and  _386
REMARK  151  A    between atoms: _386  and  _387
REMARK  152  A    between atoms: _386  and  _389
REMARK  153  A    between atoms: _389  and  _390
REMARK  154  A    between atoms: _390  and  _391
REMARK  155  A    between atoms: _391  and  _392
REMARK  156  A    between atoms: _392  and  _393
REMARK  157  A    between atoms: _397  and  _399
REMARK  158  A    between atoms: _399  and  _400
REMARK  159  A    between atoms: _399  and  _402
REMARK  160  A    between atoms: _402  and  _403
REMARK  161  A    between atoms: _406  and  _408
REMARK  162  A    between atoms: _408  and  _409
REMARK  163  A    between atoms: _408  and  _411
REMARK  164  A    between atoms: _411  and  _412
REMARK  165  A    between atoms: _418  and  _420
REMARK  166  A    between atoms: _420  and  _421
REMARK  167  A    between atoms: _420  and  _423
REMARK  168  A    between atoms: _423  and  _424
REMARK  169  A    between atoms: _427  and  _429
REMARK  170  A    between atoms: _429  and  _430
REMARK  171  A    between atoms: _429  and  _432
REMARK  172  A    between atoms: _432  and  _433
REMARK  173  A    between atoms: _436  and  _438
REMARK  174  A    between atoms: _438  and  _439
REMARK  175  A    between atoms: _438  and  _441
REMARK  176  A    between atoms: _441  and  _442
REMARK  177  A    between atoms: _445  and  _447
REMARK  178  A    between atoms: _447  and  _448
REMARK  179  A    between atoms: _447  and  _450
REMARK  180  A    between atoms: _450  and  _451
REMARK  181  A    between atoms: _451  and  _452
REMARK  182  A    between atoms: _452  and  _453
REMARK  183  A    between atoms: _462  and  _464
REMARK  184  A    between atoms: _464  and  _465
REMARK  185  A    between atoms: _464  and  _467
REMARK  186  A    between atoms: _467  and  _468
REMARK  187  A    between atoms: _473  and  _475
REMARK  188  A    between atoms: _475  and  _476
REMARK  189  A    between atoms: _475  and  _478
REMARK  190  A    between atoms: _478  and  _479
REMARK  191  A    between atoms: _479  and  _480
REMARK  192  A    between atoms: _485  and  _487
REMARK  193  A    between atoms: _487  and  _488
REMARK  194  A    between atoms: _490  and  _492
REMARK  195  A    between atoms: _492  and  _493
REMARK  196  A    between atoms: _492  and  _495
REMARK  197  A    between atoms: _495  and  _496
REMARK  198  A    between atoms: _502  and  _504
REMARK  199  A    between atoms: _504  and  _505
REMARK  200  A    between atoms: _508  and  _510
REMARK  201  A    between atoms: _510  and  _511
REMARK  202  A    between atoms: _510  and  _513
REMARK  203  A    between atoms: _513  and  _514
REMARK  204  A    between atoms: _514  and  _515
REMARK  205  A    between atoms: _515  and  _516
REMARK  206  A    between atoms: _525  and  _527
REMARK  207  A    between atoms: _527  and  _528
REMARK  208  A    between atoms: _531  and  _533
REMARK  209  A    between atoms: _533  and  _534
REMARK  210  A    between atoms: _536  and  _538
REMARK  211  A    between atoms: _538  and  _539
REMARK  212  A    between atoms: _538  and  _541
REMARK  213  A    between atoms: _541  and  _542
REMARK  214  A    between atoms: _552  and  _554
REMARK  215  A    between atoms: _554  and  _555
REMARK  216  A    between atoms: _554  and  _557
REMARK  217  A    between atoms: _557  and  _558
REMARK  218  A    between atoms: _559  and  _561
REMARK  219  A    between atoms: _561  and  _562
REMARK  220  A    between atoms: _565  and  _567
REMARK  221  A    between atoms: _567  and  _568
REMARK  222  A    between atoms: _567  and  _570
REMARK  223  A    between atoms: _570  and  _571
REMARK  224  A    between atoms: _574  and  _576
REMARK  225  A    between atoms: _576  and  _577
REMARK  226  A    between atoms: _576  and  _579
REMARK  227  A    between atoms: _579  and  _580
REMARK  228  A    between atoms: _585  and  _586
REMARK  229  A    between atoms: _588  and  _590
REMARK  230  A    between atoms: _590  and  _591
REMARK  231  A    between atoms: _590  and  _593
REMARK  232  A    between atoms: _593  and  _594
REMARK  233  A    between atoms: _596  and  _598
REMARK  234  A    between atoms: _598  and  _599
REMARK  235  A    between atoms: _598  and  _601
REMARK  236  A    between atoms: _601  and  _602
REMARK  237  A    between atoms: _608  and  _610
REMARK  238  A    between atoms: _610  and  _611
REMARK  239  A    between atoms: _610  and  _613
REMARK  240  A    between atoms: _613  and  _614
REMARK  241  A    between atoms: _617  and  _619
REMARK  242  A    between atoms: _619  and  _620
REMARK  243  A    between atoms: _619  and  _622
REMARK  244  A    between atoms: _622  and  _623
REMARK  245  A    between atoms: _625  and  _627
REMARK  246  A    between atoms: _627  and  _628
REMARK  247  A    between atoms: _627  and  _630
REMARK  248  A    between atoms: _630  and  _631
REMARK  249  A    between atoms: _636  and  _638
REMARK  250  A    between atoms: _638  and  _639
REMARK  251  A    between atoms: _638  and  _641
REMARK  252  A    between atoms: _641  and  _642
REMARK  253  A    between atoms: _647  and  _649
REMARK  254  A    between atoms: _649  and  _650
REMARK  255  A    between atoms: _649  and  _652
REMARK  256  A    between atoms: _652  and  _653
REMARK  257  A    between atoms: _656  and  _658
REMARK  258  A    between atoms: _658  and  _659
REMARK  259  A    between atoms: _662  and  _664
REMARK  260  A    between atoms: _664  and  _665
REMARK  261  A    between atoms: _664  and  _667
REMARK  262  A    between atoms: _667  and  _668
REMARK  263  A    between atoms: _673  and  _674
REMARK  264  A    between atoms: _676  and  _678
REMARK  265  A    between atoms: _678  and  _679
REMARK  266  A    between atoms: _678  and  _681
REMARK  267  A    between atoms: _681  and  _682
REMARK  268  A    between atoms: _687  and  _688
REMARK  269  A    between atoms: _690  and  _692
REMARK  270  A    between atoms: _692  and  _693
REMARK  271  A    between atoms: _692  and  _695
REMARK  272  A    between atoms: _698  and  _700
REMARK  273  A    between atoms: _700  and  _701
REMARK  274  A    between atoms: _700  and  _703
REMARK  275  A    between atoms: _703  and  _704
REMARK  276  A    between atoms: _709  and  _711
REMARK  277  A    between atoms: _711  and  _712
REMARK  278  A    between atoms: _715  and  _717
REMARK  279  A    between atoms: _717  and  _718
REMARK  280  A    between atoms: _717  and  _720
REMARK  281  A    between atoms: _720  and  _721
REMARK  282  A    between atoms: _721  and  _722
REMARK  283  A    between atoms: _722  and  _723
REMARK  284  A    between atoms: _732  and  _734
REMARK  285  A    between atoms: _734  and  _735
REMARK  286  A    between atoms: _734  and  _737
REMARK  287  A    between atoms: _737  and  _738
REMARK  288  A    between atoms: _741  and  _743
REMARK  289  A    between atoms: _743  and  _744
REMARK  290  A    between atoms: _743  and  _746
REMARK  291  A    between atoms: _746  and  _747
REMARK  292  A    between atoms: _750  and  _752
REMARK  293  A    between atoms: _752  and  _753
REMARK  294  A    between atoms: _752  and  _755
REMARK  295  A    between atoms: _755  and  _756
REMARK  296  A    between atoms: _797  and  _800
REMARK                            x       y       z     vdW  Elec       q    Type
REMARK                         _______ _______ _______ _____ _____    ______ ____
ROOT
ATOM      1  CA  CYS A   6       3.332  14.449  16.211  0.00  0.00    +0.160 C 
ENDROOT
BRANCH   1   2
ATOM      2  N   CYS A   6       3.474  15.600  17.081  0.00  0.00    -0.296 N 
ATOM      3  C   TRP A   5       2.978  15.623  18.316  0.00  0.00    +0.241 C 
ATOM      4  O   TRP A   5       2.296  14.712  18.822  0.00  0.00    -0.273 OA
ATOM      5  H   CYS A   6       3.981  16.437  16.728  0.00  0.00    +0.150 HD
BRANCH   3   6
ATOM      6  CA  TRP A   5       3.236  16.882  19.143  0.00  0.00    +0.153 C 
BRANCH   6   7
ATOM      7  N   TRP A   5       1.937  17.242  19.753  0.00  0.00    -0.297 N 
ATOM      8  H   TRP A   5       1.493  16.643  20.478  0.00  0.00    +0.150 HD
ATOM      9  C   GLY A   4       1.362  18.366  19.333  0.00  0.00    +0.243 C 
ATOM     10  O   GLY A   4       1.944  19.223  18.673  0.00  0.00    -0.273 OA
BRANCH   9  11
ATOM     11  CA  GLY A   4      -0.012  18.662  19.927  0.00  0.00    +0.176 C 
BRANCH  11  12
ATOM     12  N   GLY A   4       0.096  19.969  20.580  0.00  0.00    -0.295 N 
ATOM     13  C   ALA A   3      -0.717  20.253  21.617  0.00  0.00    +0.241 C 
ATOM     14  O   ALA A   3      -1.605  19.502  22.008  0.00  0.00    -0.273 OA
ATOM     15  H   GLY A   4       0.791  20.668  20.248  0.00  0.00    +0.150 HD
BRANCH  13  16
ATOM     16  CA  ALA A   3      -0.437  21.594  22.257  0.00  0.00    +0.149 C 
ATOM     17  CB  ALA A   3       0.746  21.456  23.230  0.00  0.00    +0.031 C 
BRANCH  16  18
ATOM     18  N   ALA A   3      -1.600  22.114  22.963  0.00  0.00    -0.297 N 
ATOM     19  H   ALA A   3      -2.319  21.459  23.332  0.00  0.00    +0.150 HD
ATOM     20  C   ARG A   2      -1.743  23.420  23.136  0.00  0.00    +0.241 C 
ATOM     21  O   ARG A   2      -0.913  24.229  22.685  0.00  0.00    -0.273 OA
BRANCH  20  22
ATOM     22  CA  ARG A   2      -2.921  23.956  23.930  0.00  0.00    +0.149 C 
BRANCH  22  23
ATOM     23  N   ARG A   2      -2.441  25.170  24.614  0.00  0.00    -0.297 N 
ATOM     24  C   ALA A   1      -1.462  25.095  25.512  0.00  0.00    +0.238 C 
ATOM     25  O   ALA A   1      -0.976  24.043  25.931  0.00  0.00    -0.274 OA
ATOM     26  H   ARG A   2      -2.870  26.091  24.393  0.00  0.00    +0.150 HD
BRANCH  24  27
ATOM     27  CA  ALA A   1      -0.941  26.420  26.035  0.00  0.00    +0.145 C 
ATOM     28  CB  ALA A   1       0.282  26.808  25.178  0.00  0.00    +0.028 C 
BRANCH  27  29
ATOM     29  N   ALA A   1      -0.582  26.335  27.429  0.00  0.00    -0.238 NA
ATOM     30  H   ALA A   1      -0.027  25.522  27.765  0.00  0.00    +0.142 HD
ENDBRANCH  27  29
ENDBRANCH  24  27
ENDBRANCH  22  23
BRANCH  22  31
ATOM     31  CB  ARG A   2      -4.095  24.447  23.098  0.00  0.00    +0.033 C 
BRANCH  31  32
ATOM     32  CG  ARG A   2      -4.786  23.602  22.076  0.00  0.00    +0.045 C 
BRANCH  32  33
ATOM     33  CD  ARG A   2      -4.188  23.860  20.673  0.00  0.00    +0.174 C 
BRANCH  33  34
ATOM     34  NE  ARG A   2      -3.793  22.535  20.233  0.00  0.00    -0.265 N 
ATOM     35  HE  ARG A   2      -4.245  21.723  20.699  0.00  0.00    +0.259 HD
ATOM     36  CZ  ARG A   2      -2.895  22.272  19.277  0.00  0.00    +0.342 C 
ATOM     37  NH2 ARG A   2      -2.707  20.984  19.094  0.00  0.00    -0.292 N 
ATOM     38 HH21 ARG A   2      -3.234  20.295  19.667  0.00  0.00    +0.255 HD
ATOM     39 HH22 ARG A   2      -2.031  20.654  18.376  0.00  0.00    +0.255 HD
ATOM     40  NH1 ARG A   2      -2.277  23.200  18.571  0.00  0.00    -0.292 N 
ATOM     41 HH11 ARG A   2      -2.478  24.205  18.744  0.00  0.00    +0.255 HD
ATOM     42 HH12 ARG A   2      -1.589  22.926  17.841  0.00  0.00    +0.255 HD
ENDBRANCH  33  34
ENDBRANCH  32  33
ENDBRANCH  31  32
ENDBRANCH  22  31
ENDBRANCH  20  22
ENDBRANCH  16  18
ENDBRANCH  13  16
ENDBRANCH  11  12
ENDBRANCH   9  11
ENDBRANCH   6   7
BRANCH   6  43
ATOM     43  CB  TRP A   5       4.318  16.577  20.183  0.00  0.00    +0.057 C 
BRANCH  43  44
ATOM     44  CG  TRP A   5       5.660  16.236  19.575  0.00  0.00    -0.002 A 
ATOM     45  CD1 TRP A   5       6.221  14.986  19.466  0.00  0.00    +0.068 A 
ATOM     46  NE1 TRP A   5       7.478  15.095  18.880  0.00  0.00    -0.352 N 
ATOM     47  HE1 TRP A   5       8.122  14.303  18.680  0.00  0.00    +0.166 HD
ATOM     48  CE2 TRP A   5       7.730  16.410  18.609  0.00  0.00    +0.056 A 
ATOM     49  CZ2 TRP A   5       8.853  17.000  18.022  0.00  0.00    +0.017 A 
ATOM     50  CH2 TRP A   5       8.825  18.371  17.893  0.00  0.00    +0.001 A 
ATOM     51  CZ3 TRP A   5       7.732  19.156  18.310  0.00  0.00    +0.000 A 
ATOM     52  CE3 TRP A   5       6.616  18.546  18.903  0.00  0.00    +0.001 A 
ATOM     53  CD2 TRP A   5       6.611  17.158  19.031  0.00  0.00    +0.013 A 
ENDBRANCH  43  44
ENDBRANCH   6  43
ENDBRANCH   3   6
ENDBRANCH   1   2
BRANCH   1  54
ATOM     54  C   CYS A   6       4.736  13.887  15.935  0.00  0.00    +0.242 C 
ATOM     55  N   ALA A   7       4.871  12.577  15.970  0.00  0.00    -0.297 N 
ATOM     56  H   ALA A   7       4.054  11.966  16.172  0.00  0.00    +0.150 HD
ATOM     57  O   CYS A   6       5.675  14.677  15.739  0.00  0.00    -0.273 OA
BRANCH  55  58
ATOM     58  CA  ALA A   7       6.186  12.000  15.721  0.00  0.00    +0.149 C 
ATOM     59  CB  ALA A   7       6.083  10.473  15.666  0.00  0.00    +0.031 C 
BRANCH  58  60
ATOM     60  C   ALA A   7       6.828  12.485  14.417  0.00  0.00    +0.241 C 
ATOM     61  N   ASP A   8       8.169  12.537  14.462  0.00  0.00    -0.297 N 
ATOM     62  H   ASP A   8       8.650  12.359  15.367  0.00  0.00    +0.150 HD
ATOM     63  O   ALA A   7       6.191  12.720  13.376  0.00  0.00    -0.273 OA
BRANCH  61  64
ATOM     64  CA  ASP A   8       8.977  12.837  13.276  0.00  0.00    +0.160 C 
BRANCH  64  65
ATOM     65  C   ASP A   8       9.536  11.528  12.699  0.00  0.00    +0.241 C 
ATOM     66  N   TYR A   9       9.690  10.537  13.564  0.00  0.00    -0.298 N 
ATOM     67  H   TYR A   9       9.486  10.751  14.561  0.00  0.00    +0.150 HD
ATOM     68  O   ASP A   8       9.884  11.405  11.522  0.00  0.00    -0.273 OA
BRANCH  66  69
ATOM     69  CA  TYR A   9      10.114   9.182  13.262  0.00  0.00    +0.141 C 
BRANCH  69  70
ATOM     70  C   TYR A   9       9.421   8.260  14.284  0.00  0.00    +0.227 C 
ATOM     71  O   TYR A   9       9.186   8.659  15.420  0.00  0.00    -0.286 OA
ENDBRANCH  69  70
BRANCH  69  72
ATOM     72  CB  TYR A   9      11.620   9.013  13.266  0.00  0.00    +0.054 C 
BRANCH  72  73
ATOM     73  CG  TYR A   9      12.346   9.430  14.522  0.00  0.00    -0.020 A 
ATOM     74  CD2 TYR A   9      12.699   8.463  15.470  0.00  0.00    -0.001 A 
ATOM     75  CE2 TYR A   9      13.351   8.806  16.642  0.00  0.00    +0.036 A 
ATOM     76  CZ  TYR A   9      13.730  10.131  16.830  0.00  0.00    +0.134 A 
ATOM     77  CE1 TYR A   9      13.416  11.081  15.895  0.00  0.00    +0.036 A 
ATOM     78  CD1 TYR A   9      12.712  10.755  14.742  0.00  0.00    -0.001 A 
BRANCH  76  79
ATOM     79  OH  TYR A   9      14.396  10.490  17.988  0.00  0.00    -0.506 OA
ATOM     80  HH  TYR A   9      13.827  10.284  18.772  0.00  0.00    +0.292 HD
ENDBRANCH  76  79
ENDBRANCH  72  73
ENDBRANCH  69  72
ENDBRANCH  66  69
ENDBRANCH  64  65
BRANCH  64  81
ATOM     81  CB  ASP A   8      10.151  13.756  13.674  0.00  0.00    +0.143 C 
BRANCH  81  82
ATOM     82  CG  ASP A   8       9.628  15.115  14.137  0.00  0.00    +0.367 C 
ATOM     83  OD2 ASP A   8      10.220  15.711  15.056  0.00  0.00    -0.246 OA
ATOM     84  OD1 ASP A   8       8.630  15.574  13.555  0.00  0.00    -0.246 OA
ENDBRANCH  81  82
ENDBRANCH  64  81
ENDBRANCH  61  64
ENDBRANCH  58  60
ENDBRANCH  55  58
ENDBRANCH   1  54
BRANCH   1  85
ATOM     85  CB  CYS A   6       2.778  14.859  14.827  0.00  0.00    +0.098 C 
BRANCH  85  86
ATOM     86  SG  CYS A   6       1.024  15.344  14.966  0.00  0.00    -0.080 S 
BRANCH  86  87
ATOM     87  SG  ALA A   3       0.082  13.608  15.278  0.00  0.00    -0.080 S 
BRANCH  87  88
ATOM     88  CB  ALA A   3      -0.445  13.571  16.992  0.00  0.00    +0.098 C 
BRANCH  88  89
ATOM     89  CA  ALA A   3       0.304  12.561  17.892  0.00  0.00    +0.160 C 
BRANCH  89  90
ATOM     90  C   ALA A   3      -0.459  12.557  19.218  0.00  0.00    +0.242 C 
ATOM     91  N   GLY A   4      -0.057  13.423  20.124  0.00  0.00    -0.295 N 
ATOM     92  H   GLY A   4       0.750  14.045  19.914  0.00  0.00    +0.150 HD
ATOM     93  O   ALA A   3      -1.425  11.789  19.348  0.00  0.00    -0.273 OA
BRANCH  91  94
ATOM     94  CA  GLY A   4      -0.725  13.527  21.423  0.00  0.00    +0.176 C 
BRANCH  94  95
ATOM     95  C   GLY A   4      -1.185  14.967  21.628  0.00  0.00    +0.243 C 
ATOM     96  N   TRP A   5      -2.444  15.118  22.023  0.00  0.00    -0.297 N 
ATOM     97  H   TRP A   5      -3.064  14.287  22.105  0.00  0.00    +0.150 HD
ATOM     98  O   GLY A   4      -0.388  15.885  21.387  0.00  0.00    -0.273 OA
BRANCH  96  99
ATOM     99  CA  TRP A   5      -2.966  16.458  22.345  0.00  0.00    +0.153 C 
BRANCH  99 100
ATOM    100  C   TRP A   5      -2.810  16.595  23.868  0.00  0.00    +0.241 C 
ATOM    101  O   TRP A   5      -3.118  15.672  24.643  0.00  0.00    -0.273 OA
ATOM    102  N   CYS A   6      -2.232  17.683  24.318  0.00  0.00    -0.298 N 
ATOM    103  H   CYS A   6      -1.906  18.385  23.623  0.00  0.00    +0.150 HD
BRANCH 102 104
ATOM    104  CA  CYS A   6      -2.019  17.968  25.724  0.00  0.00    +0.141 C 
BRANCH 104 105
ATOM    105  C   CYS A   6      -2.034  19.464  25.978  0.00  0.00    +0.227 C 
ATOM    106  O   CYS A   6      -2.011  20.253  25.029  0.00  0.00    -0.286 OA
ENDBRANCH 104 105
BRANCH 104 107
ATOM    107  CB  CYS A   6      -0.644  17.412  26.144  0.00  0.00    +0.054 C 
BRANCH 107 108
ATOM    108  CG  CYS A   6       0.571  17.862  25.345  0.00  0.00    -0.020 A 
ATOM    109  CD2 CYS A   6       1.496  18.735  25.908  0.00  0.00    -0.001 A 
ATOM    110  CE2 CYS A   6       2.618  19.154  25.180  0.00  0.00    +0.036 A 
ATOM    111  CZ  CYS A   6       2.809  18.665  23.900  0.00  0.00    +0.134 A 
ATOM    112  CE1 CYS A   6       1.914  17.802  23.343  0.00  0.00    +0.036 A 
ATOM    113  CD1 CYS A   6       0.801  17.387  24.061  0.00  0.00    -0.001 A 
BRANCH 111 114
ATOM    114  OH  CYS A   6       3.926  19.047  23.172  0.00  0.00    -0.506 OA
ATOM    115  HH  CYS A   6       3.922  20.030  23.056  0.00  0.00    +0.292 HD
ENDBRANCH 111 114
ENDBRANCH 107 108
ENDBRANCH 104 107
ENDBRANCH 102 104
ENDBRANCH  99 100
BRANCH  99 116
ATOM    116  CB  TRP A   5      -4.452  16.460  21.986  0.00  0.00    +0.055 C 
BRANCH 116 117
ATOM    117  CG  TRP A   5      -5.107  17.830  21.901  0.00  0.00    -0.020 A 
ATOM    118  CD2 TRP A   5      -5.309  18.650  23.005  0.00  0.00    -0.001 A 
ATOM    119  CE2 TRP A   5      -5.946  19.878  22.880  0.00  0.00    +0.036 A 
ATOM    120  CZ  TRP A   5      -6.428  20.268  21.640  0.00  0.00    +0.134 A 
ATOM    121  CE1 TRP A   5      -6.269  19.458  20.550  0.00  0.00    +0.036 A 
ATOM    122  CD1 TRP A   5      -5.617  18.229  20.678  0.00  0.00    -0.001 A 
BRANCH 120 123
ATOM    123  OH  TRP A   5      -7.083  21.473  21.454  0.00  0.00    -0.506 OA
ATOM    124  HH  TRP A   5      -6.587  22.018  20.793  0.00  0.00    +0.292 HD
ENDBRANCH 120 123
ENDBRANCH 116 117
ENDBRANCH  99 116
ENDBRANCH  96  99
ENDBRANCH  94  95
BRANCH  94 125
ATOM    125  CB  GLY A   4       0.229  13.162  22.571  0.00  0.00    +0.137 C 
ATOM    126  CG2 GLY A   4      -0.455  13.276  23.934  0.00  0.00    +0.034 C 
BRANCH 125 127
ATOM    127  OG1 GLY A   4       0.617  11.786  22.404  0.00  0.00    -0.382 OA
ATOM    128  HG1 GLY A   4       1.234  11.527  23.134  0.00  0.00    +0.210 HD
ENDBRANCH 125 127
ENDBRANCH  94 125
ENDBRANCH  91  94
ENDBRANCH  89  90
BRANCH  89 130
ATOM    129  C   ARG A   2       1.375  10.630  16.828  0.00  0.00    +0.241 C 
ATOM    130  N   ALA A   3       0.264  11.204  17.359  0.00  0.00    -0.296 N 
ATOM    131  H   ALA A   3      -0.627  10.668  17.386  0.00  0.00    +0.150 HD
ATOM    132  O   ARG A   2       2.426  11.267  16.684  0.00  0.00    -0.273 OA
BRANCH 129 133
ATOM    133  CA  ARG A   2       1.179   9.203  16.358  0.00  0.00    +0.149 C 
BRANCH 133 136
ATOM    134  C   ALA A   1      -1.003   9.004  15.325  0.00  0.00    +0.239 C 
ATOM    135  O   ALA A   1      -1.540   8.949  16.452  0.00  0.00    -0.274 OA
ATOM    136  N   ARG A   2       0.306   9.108  15.190  0.00  0.00    -0.297 N 
ATOM    137  H   ARG A   2       0.723   9.123  14.237  0.00  0.00    +0.150 HD
BRANCH 134 138
ATOM    138  CA  ALA A   1      -1.872   8.853  14.089  0.00  0.00    +0.149 C 
BRANCH 138 139
ATOM    139  N   ALA A   1      -2.771   7.693  14.287  0.00  0.00    -0.238 NA
ATOM    140  H   ALA A   1      -3.084   7.423  15.241  0.00  0.00    +0.142 HD
ENDBRANCH 138 139
BRANCH 138 141
ATOM    141  CB  ALA A   1      -2.801  10.060  13.966  0.00  0.00    +0.053 C 
BRANCH 141 142
ATOM    142  CG  ALA A   1      -2.251  11.318  13.342  0.00  0.00    -0.020 A 
ATOM    143  CD2 ALA A   1      -2.989  12.489  13.511  0.00  0.00    -0.001 A 
ATOM    144  CE2 ALA A   1      -2.568  13.678  12.947  0.00  0.00    +0.036 A 
ATOM    145  CZ  ALA A   1      -1.407  13.697  12.205  0.00  0.00    +0.134 A 
ATOM    146  CE1 ALA A   1      -0.668  12.558  12.028  0.00  0.00    +0.036 A 
ATOM    147  CD1 ALA A   1      -1.074  11.346  12.591  0.00  0.00    -0.001 A 
BRANCH 145 148
ATOM    148  OH  ALA A   1      -1.018  14.916  11.664  0.00  0.00    -0.506 OA
ATOM    149  HH  ALA A   1      -0.176  14.797  11.158  0.00  0.00    +0.292 HD
ENDBRANCH 145 148
ENDBRANCH 141 142
ENDBRANCH 138 141
ENDBRANCH 134 138
ENDBRANCH 133 136
BRANCH 133 150
ATOM    150  CB  ARG A   2       2.553   8.568  16.001  0.00  0.00    +0.029 C 
BRANCH 150 151
ATOM    151  CG  ARG A   2       2.511   7.048  15.888  0.00  0.00    +0.002 C 
ATOM    152  CD2 ARG A   2       2.234   6.372  17.230  0.00  0.00    +0.000 C 
ATOM    153  CD1 ARG A   2       3.824   6.518  15.325  0.00  0.00    +0.000 C 
ENDBRANCH 150 151
ENDBRANCH 133 150
ENDBRANCH 129 133
ENDBRANCH  89 130
ENDBRANCH  88  89
ENDBRANCH  87  88
ENDBRANCH  86  87
ENDBRANCH  85  86
ENDBRANCH   1  85
TORSDOF 59
REMARK  Name = ../refined-set-2016/1b1h/1b1h_pocket.pdb
REMARK  296 active torsions:
REMARK  status: ('A' for Active; 'I' for Inactive)
REMARK    1  A    between atoms: _1  and  _3
REMARK    2  A    between atoms: _3  and  _4
REMARK    3  A    between atoms: _3  and  _6
REMARK    4  A    between atoms: _6  and  _7
REMARK    5  A    between atoms: _12  and  _14
REMARK    6  A    between atoms: _14  and  _15
REMARK    7  A    between atoms: _17  and  _19
REMARK    8  A    between atoms: _19  and  _20
REMARK    9  A    between atoms: _19  and  _22
REMARK   10  A    between atoms: _22  and  _23
REMARK   11  A    between atoms: _25  and  _27
REMARK   12  A    between atoms: _27  and  _28
REMARK   13  A    between atoms: _27  and  _30
REMARK   14  A    between atoms: _30  and  _31
REMARK   15  A    between atoms: _31  and  _32
REMARK   16  A    between atoms: _37  and  _39
REMARK   17  A    between atoms: _39  and  _40
REMARK   18  A    between atoms: _39  and  _42
REMARK   19  A    between atoms: _42  and  _43
REMARK   20  A    between atoms: _46  and  _48
REMARK   21  A    between atoms: _48  and  _49
REMARK   22  A    between atoms: _48  and  _51
REMARK   23  A    between atoms: _51  and  _52
REMARK   24  A    between atoms: _52  and  _53
REMARK   25  A    between atoms: _56  and  _58
REMARK   26  A    between atoms: _58  and  _59
REMARK   27  A    between atoms: _61  and  _63
REMARK   28  A    between atoms: _63  and  _64
REMARK   29  A    between atoms: _63  and  _66
REMARK   30  A    between atoms: _70  and  _71
REMARK   31  A    between atoms: _76  and  _78
REMARK   32  A    between atoms: _78  and  _79
REMARK   33  A    between atoms: _78  and  _81
REMARK   34  A    between atoms: _81  and  _82
REMARK   35  A    between atoms: _82  and  _83
REMARK   36  A    between atoms: _86  and  _88
REMARK   37  A    between atoms: _88  and  _89
REMARK   38  A    between atoms: _88  and  _91
REMARK   39  A    between atoms: _91  and  _92
REMARK   40  A    between atoms: _94  and  _96
REMARK   41  A    between atoms: _96  and  _97
REMARK   42  A    between atoms: _96  and  _99
REMARK   43  A    between atoms: _99  and  _100
REMARK   44  A    between atoms: _105  and  _107
REMARK   45  A    between atoms: _107  and  _108
REMARK   46  A    between atoms: _107  and  _110
REMARK   47  A    between atoms: _110  and  _111
REMARK   48  A    between atoms: _111  and  _112
REMARK   49  A    between atoms: _112  and  _113
REMARK   50  A    between atoms: _123  and  _124
REMARK   51  A    between atoms: _129  and  _131
REMARK   52  A    between atoms: _131  and  _132
REMARK   53  A    between atoms: _131  and  _134
REMARK   54  A    between atoms: _134  and  _135
REMARK   55  A    between atoms: _140  and  _141
REMARK   56  A    between atoms: _143  and  _145
REMARK   57  A    between atoms: _145  and  _146
REMARK   58  A    between atoms: _145  and  _148
REMARK   59  A    between atoms: _148  and  _149
REMARK   60  A    between atoms: _154  and  _155
REMARK   61  A    between atoms: _157  and  _159
REMARK   62  A    between atoms: _159  and  _160
REMARK   63  A    between atoms: _159  and  _162
REMARK   64  A    between atoms: _165  and  _167
REMARK   65  A    between atoms: _167  and  _168
REMARK   66  A    between atoms: _167  and  _170
REMARK   67  A    between atoms: _170  and  _171
REMARK   68  A    between atoms: _177  and  _178
REMARK   69  A    between atoms: _183  and  _185
REMARK   70  A    between atoms: _185  and  _186
REMARK   71  A    between atoms: _185  and  _188
REMARK   72  A    between atoms: _188  and  _189
REMARK   73  A    between atoms: _191  and  _193
REMARK   74  A    between atoms: _193  and  _194
REMARK   75  A    between atoms: _193  and  _196
REMARK   76  A    between atoms: _196  and  _197
REMARK   77  A    between atoms: _197  and  _198
REMARK   78  A    between atoms: _201  and  _203
REMARK   79  A    between atoms: _203  and  _204
REMARK   80  A    between atoms: _203  and  _206
REMARK   81  A    between atoms: _206  and  _207
REMARK   82  A    between atoms: _212  and  _213
REMARK   83  A    between atoms: _215  and  _217
REMARK   84  A    between atoms: _217  and  _218
REMARK   85  A    between atoms: _217  and  _220
REMARK   86  A    between atoms: _220  and  _221
REMARK   87  A    between atoms: _226  and  _228
REMARK   88  A    between atoms: _228  and  _229
REMARK   89  A    between atoms: _228  and  _231
REMARK   90  A    between atoms: _231  and  _232
REMARK   91  A    between atoms: _237  and  _239
REMARK   92  A    between atoms: _239  and  _240
REMARK   93  A    between atoms: _239  and  _242
REMARK   94  A    between atoms: _242  and  _243
REMARK   95  A    between atoms: _243  and  _244
REMARK   96  A    between atoms: _246  and  _248
REMARK   97  A    between atoms: _248  and  _249
REMARK   98  A    between atoms: _248  and  _251
REMARK   99  A    between atoms: _251  and  _252
REMARK  100  A    between atoms: _257  and  _258
REMARK  101  A    between atoms: _260  and  _262
REMARK  102  A    between atoms: _262  and  _263
REMARK  103  A    between atoms: _262  and  _265
REMARK  104  A    between atoms: _265  and  _266
REMARK  105  A    between atoms: _269  and  _271
REMARK  106  A    between atoms: _271  and  _272
REMARK  107  A    between atoms: _271  and  _274
REMARK  108  A    between atoms: _274  and  _275
REMARK  109  A    between atoms: _275  and  _558
REMARK  110  A    between atoms: _276  and  _278
REMARK  111  A    between atoms: _278  and  _279
REMARK  112  A    between atoms: _278  and  _281
REMARK  113  A    between atoms: _281  and  _282
REMARK  114  A    between atoms: _285  and  _287
REMARK  115  A    between atoms: _287  and  _288
REMARK  116  A    between atoms: _287  and  _290
REMARK  117  A    between atoms: _290  and  _291
REMARK  118  A    between atoms: _296  and  _297
REMARK  119  A    between atoms: _299  and  _301
REMARK  120  A    between atoms: _301  and  _302
REMARK  121  A    between atoms: _301  and  _304
REMARK  122  A    between atoms: _304  and  _305
REMARK  123  A    between atoms: _310  and  _311
REMARK  124  A    between atoms: _313  and  _315
REMARK  125  A    between atoms: _315  and  _316
REMARK  126  A    between atoms: _315  and  _318
REMARK  127  A    between atoms: _318  and  _319
REMARK  128  A    between atoms: _319  and  _320
REMARK  129  A    between atoms: _323  and  _325
REMARK  130  A    between atoms: _325  and  _326
REMARK  131  A    between atoms: _325  and  _328
REMARK  132  A    between atoms: _328  and  _329
REMARK  133  A    between atoms: _334  and  _335
REMARK  134  A    between atoms: _337  and  _339
REMARK  135  A    between atoms: _339  and  _340
REMARK  136  A    between atoms: _339  and  _342
REMARK  137  A    between atoms: _342  and  _343
REMARK  138  A    between atoms: _348  and  _350
REMARK  139  A    between atoms: _350  and  _351
REMARK  140  A    between atoms: _350  and  _353
REMARK  141  A    between atoms: _353  and  _354
REMARK  142  A    between atoms: _357  and  _359
REMARK  143  A    between atoms: _359  and  _360
REMARK  144  A    between atoms: _359  and  _362
REMARK  145  A    between atoms: _362  and  _363
REMARK  146  A    between atoms: _368  and  _370
REMARK  147  A    between atoms: _370  and  _371
REMARK  148  A    between atoms: _370  and  _373
REMARK  149  A    between atoms: _373  and  _374
REMARK  150  A    between atoms: _384  and  _386
REMARK  151  A    between atoms: _386  and  _387
REMARK  152  A    between atoms: _386  and  _389
REMARK  153  A    between atoms: _389  and  _390
REMARK  154  A    between atoms: _390  and  _391
REMARK  155  A    between atoms: _391  and  _392
REMARK  156  A    between atoms: _392  and  _393
REMARK  157  A    between atoms: _397  and  _399
REMARK  158  A    between atoms: _399  and  _400
REMARK  159  A    between atoms: _399  and  _402
REMARK  160  A    between atoms: _402  and  _403
REMARK  161  A    between atoms: _406  and  _408
REMARK  162  A    between atoms: _408  and  _409
REMARK  163  A    between atoms: _408  and  _411
REMARK  164  A    between atoms: _411  and  _412
REMARK  165  A    between atoms: _418  and  _420
REMARK  166  A    between atoms: _420  and  _421
REMARK  167  A    between atoms: _420  and  _423
REMARK  168  A    between atoms: _423  and  _424
REMARK  169  A    between atoms: _427  and  _429
REMARK  170  A    between atoms: _429  and  _430
REMARK  171  A    between atoms: _429  and  _432
REMARK  172  A    between atoms: _432  and  _433
REMARK  173  A    between atoms: _436  and  _438
REMARK  174  A    between atoms: _438  and  _439
REMARK  175  A    between atoms: _438  and  _441
REMARK  176  A    between atoms: _441  and  _442
REMARK  177  A    between atoms: _445  and  _447
REMARK  178  A    between atoms: _447  and  _448
REMARK  179  A    between atoms: _447  and  _450
REMARK  180  A    between atoms: _450  and  _451
REMARK  181  A    between atoms: _451  and  _452
REMARK  182  A    between atoms: _452  and  _453
REMARK  183  A    between atoms: _462  and  _464
REMARK  184  A    between atoms: _464  and  _465
REMARK  185  A    between atoms: _464  and  _467
REMARK  186  A    between atoms: _467  and  _468
REMARK  187  A    between atoms: _473  and  _475
REMARK  188  A    between atoms: _475  and  _476
REMARK  189  A    between atoms: _475  and  _478
REMARK  190  A    between atoms: _478  and  _479
REMARK  191  A    between atoms: _479  and  _480
REMARK  192  A    between atoms: _485  and  _487
REMARK  193  A    between atoms: _487  and  _488
REMARK  194  A    between atoms: _490  and  _492
REMARK  195  A    between atoms: _492  and  _493
REMARK  196  A    between atoms: _492  and  _495
REMARK  197  A    between atoms: _495  and  _496
REMARK  198  A    between atoms: _502  and  _504
REMARK  199  A    between atoms: _504  and  _505
REMARK  200  A    between atoms: _508  and  _510
REMARK  201  A    between atoms: _510  and  _511
REMARK  202  A    between atoms: _510  and  _513
REMARK  203  A    between atoms: _513  and  _514
REMARK  204  A    between atoms: _514  and  _515
REMARK  205  A    between atoms: _515  and  _516
REMARK  206  A    between atoms: _525  and  _527
REMARK  207  A    between atoms: _527  and  _528
REMARK  208  A    between atoms: _531  and  _533
REMARK  209  A    between atoms: _533  and  _534
REMARK  210  A    between atoms: _536  and  _538
REMARK  211  A    between atoms: _538  and  _539
REMARK  212  A    between atoms: _538  and  _541
REMARK  213  A    between atoms: _541  and  _542
REMARK  214  A    between atoms: _552  and  _554
REMARK  215  A    between atoms: _554  and  _555
REMARK  216  A    between atoms: _554  and  _557
REMARK  217  A    between atoms: _557  and  _558
REMARK  218  A    between atoms: _559  and  _561
REMARK  219  A    between atoms: _561  and  _562
REMARK  220  A    between atoms: _565  and  _567
REMARK  221  A    between atoms: _567  and  _568
REMARK  222  A    between atoms: _567  and  _570
REMARK  223  A    between atoms: _570  and  _571
REMARK  224  A    between atoms: _574  and  _576
REMARK  225  A    between atoms: _576  and  _577
REMARK  226  A    between atoms: _576  and  _579
REMARK  227  A    between atoms: _579  and  _580
REMARK  228  A    between atoms: _585  and  _586
REMARK  229  A    between atoms: _588  and  _590
REMARK  230  A    between atoms: _590  and  _591
REMARK  231  A    between atoms: _590  and  _593
REMARK  232  A    between atoms: _593  and  _594
REMARK  233  A    between atoms: _596  and  _598
REMARK  234  A    between atoms: _598  and  _599
REMARK  235  A    between atoms: _598  and  _601
REMARK  236  A    between atoms: _601  and  _602
REMARK  237  A    between atoms: _608  and  _610
REMARK  238  A    between atoms: _610  and  _611
REMARK  239  A    between atoms: _610  and  _613
REMARK  240  A    between atoms: _613  and  _614
REMARK  241  A    between atoms: _617  and  _619
REMARK  242  A    between atoms: _619  and  _620
REMARK  243  A    between atoms: _619  and  _622
REMARK  244  A    between atoms: _622  and  _623
REMARK  245  A    between atoms: _625  and  _627
REMARK  246  A    between atoms: _627  and  _628
REMARK  247  A    between atoms: _627  and  _630
REMARK  248  A    between atoms: _630  and  _631
REMARK  249  A    between atoms: _636  and  _638
REMARK  250  A    between atoms: _638  and  _639
REMARK  251  A    between atoms: _638  and  _641
REMARK  252  A    between atoms: _641  and  _642
REMARK  253  A    between atoms: _647  and  _649
REMARK  254  A    between atoms: _649  and  _650
REMARK  255  A    between atoms: _649  and  _652
REMARK  256  A    between atoms: _652  and  _653
REMARK  257  A    between atoms: _656  and  _658
REMARK  258  A    between atoms: _658  and  _659
REMARK  259  A    between atoms: _662  and  _664
REMARK  260  A    between atoms: _664  and  _665
REMARK  261  A    between atoms: _664  and  _667
REMARK  262  A    between atoms: _667  and  _668
REMARK  263  A    between atoms: _673  and  _674
REMARK  264  A    between atoms: _676  and  _678
REMARK  265  A    between atoms: _678  and  _679
REMARK  266  A    between atoms: _678  and  _681
REMARK  267  A    between atoms: _681  and  _682
REMARK  268  A    between atoms: _687  and  _688
REMARK  269  A    between atoms: _690  and  _692
REMARK  270  A    between atoms: _692  and  _693
REMARK  271  A    between atoms: _692  and  _695
REMARK  272  A    between atoms: _698  and  _700
REMARK  273  A    between atoms: _700  and  _701
REMARK  274  A    between atoms: _700  and  _703
REMARK  275  A    between atoms: _703  and  _704
REMARK  276  A    between atoms: _709  and  _711
REMARK  277  A    between atoms: _711  and  _712
REMARK  278  A    between atoms: _715  and  _717
REMARK  279  A    between atoms: _717  and  _718
REMARK  280  A    between atoms: _717  and  _720
REMARK  281  A    between atoms: _720  and  _721
REMARK  282  A    between atoms: _721  and  _722
REMARK  283  A    between atoms: _722  and  _723
REMARK  284  A    between atoms: _732  and  _734
REMARK  285  A    between atoms: _734  and  _735
REMARK  286  A    between atoms: _734  and  _737
REMARK  287  A    between atoms: _737  and  _738
REMARK  288  A    between atoms: _741  and  _743
REMARK  289  A    between atoms: _743  and  _744
REMARK  290  A    between atoms: _743  and  _746
REMARK  291  A    between atoms: _746  and  _747
REMARK  292  A    between atoms: _750  and  _752
REMARK  293  A    between atoms: _752  and  _753
REMARK  294  A    between atoms: _752  and  _755
REMARK  295  A    between atoms: _755  and  _756
REMARK  296  A    between atoms: _797  and  _800
REMARK                            x       y       z     vdW  Elec       q    Type
REMARK                         _______ _______ _______ _____ _____    ______ ____
ROOT
ATOM      1  CA  GLU A   1       1.737  22.360  27.695  0.00  0.00    +0.134 C 
ENDROOT
BRANCH   1   2
ATOM      2  N   GLU A   1       0.335  22.100  27.412  0.00  0.00    -0.239 NA
ATOM      3  H   GLU A   1      -0.075  22.565  26.577  0.00  0.00    +0.142 HD
ENDBRANCH   1   2
BRANCH   1   4
ATOM      4  C   GLU A   1       1.808  23.405  28.799  0.00  0.00    +0.224 C 
ATOM      5  O   GLU A   1       1.263  24.513  28.670  0.00  0.00    -0.287 OA
ENDBRANCH   1   4
BRANCH   1   6
ATOM      6  CB  GLU A   1       2.445  22.891  26.434  0.00  0.00    +0.037 C 
BRANCH   6   7
ATOM      7  CG  GLU A   1       3.944  23.226  26.688  0.00  0.00    +0.116 C 
BRANCH   7   8
ATOM      8  CD  GLU A   1       4.441  23.806  25.365  0.00  0.00    +0.365 C 
ATOM      9  OE2 GLU A   1       4.117  24.976  25.081  0.00  0.00    -0.246 OA
ATOM     10  OE1 GLU A   1       5.111  23.076  24.628  0.00  0.00    -0.246 OA
ENDBRANCH   7   8
ENDBRANCH   6   7
ENDBRANCH   1   6
TORSDOF 5
REMARK  Name = ../refined-set-2016/1b1h/1b1h_pocket.pdb
REMARK  296 active torsions:
REMARK  status: ('A' for Active; 'I' for Inactive)
REMARK    1  A    between atoms: _1  and  _3
REMARK    2  A    between atoms: _3  and  _4
REMARK    3  A    between atoms: _3  and  _6
REMARK    4  A    between atoms: _6  and  _7
REMARK    5  A    between atoms: _12  and  _14
REMARK    6  A    between atoms: _14  and  _15
REMARK    7  A    between atoms: _17  and  _19
REMARK    8  A    between atoms: _19  and  _20
REMARK    9  A    between atoms: _19  and  _22
REMARK   10  A    between atoms: _22  and  _23
REMARK   11  A    between atoms: _25  and  _27
REMARK   12  A    between atoms: _27  and  _28
REMARK   13  A    between atoms: _27  and  _30
REMARK   14  A    between atoms: _30  and  _31
REMARK   15  A    between atoms: _31  and  _32
REMARK   16  A    between atoms: _37  and  _39
REMARK   17  A    between atoms: _39  and  _40
REMARK   18  A    between atoms: _39  and  _42
REMARK   19  A    between atoms: _42  and  _43
REMARK   20  A    between atoms: _46  and  _48
REMARK   21  A    between atoms: _48  and  _49
REMARK   22  A    between atoms: _48  and  _51
REMARK   23  A    between atoms: _51  and  _52
REMARK   24  A    between atoms: _52  and  _53
REMARK   25  A    between atoms: _56  and  _58
REMARK   26  A    between atoms: _58  and  _59
REMARK   27  A    between atoms: _61  and  _63
REMARK   28  A    between atoms: _63  and  _64
REMARK   29  A    between atoms: _63  and  _66
REMARK   30  A    between atoms: _70  and  _71
REMARK   31  A    between atoms: _76  and  _78
REMARK   32  A    between atoms: _78  and  _79
REMARK   33  A    between atoms: _78  and  _81
REMARK   34  A    between atoms: _81  and  _82
REMARK   35  A    between atoms: _82  and  _83
REMARK   36  A    between atoms: _86  and  _88
REMARK   37  A    between atoms: _88  and  _89
REMARK   38  A    between atoms: _88  and  _91
REMARK   39  A    between atoms: _91  and  _92
REMARK   40  A    between atoms: _94  and  _96
REMARK   41  A    between atoms: _96  and  _97
REMARK   42  A    between atoms: _96  and  _99
REMARK   43  A    between atoms: _99  and  _100
REMARK   44  A    between atoms: _105  and  _107
REMARK   45  A    between atoms: _107  and  _108
REMARK   46  A    between atoms: _107  and  _110
REMARK   47  A    between atoms: _110  and  _111
REMARK   48  A    between atoms: _111  and  _112
REMARK   49  A    between atoms: _112  and  _113
REMARK   50  A    between atoms: _123  and  _124
REMARK   51  A    between atoms: _129  and  _131
REMARK   52  A    between atoms: _131  and  _132
REMARK   53  A    between atoms: _131  and  _134
REMARK   54  A    between atoms: _134  and  _135
REMARK   55  A    between atoms: _140  and  _141
REMARK   56  A    between atoms: _143  and  _145
REMARK   57  A    between atoms: _145  and  _146
REMARK   58  A    between atoms: _145  and  _148
REMARK   59  A    between atoms: _148  and  _149
REMARK   60  A    between atoms: _154  and  _155
REMARK   61  A    between atoms: _157  and  _159
REMARK   62  A    between atoms: _159  and  _160
REMARK   63  A    between atoms: _159  and  _162
REMARK   64  A    between atoms: _165  and  _167
REMARK   65  A    between atoms: _167  and  _168
REMARK   66  A    between atoms: _167  and  _170
REMARK   67  A    between atoms: _170  and  _171
REMARK   68  A    between atoms: _177  and  _178
REMARK   69  A    between atoms: _183  and  _185
REMARK   70  A    between atoms: _185  and  _186
REMARK   71  A    between atoms: _185  and  _188
REMARK   72  A    between atoms: _188  and  _189
REMARK   73  A    between atoms: _191  and  _193
REMARK   74  A    between atoms: _193  and  _194
REMARK   75  A    between atoms: _193  and  _196
REMARK   76  A    between atoms: _196  and  _197
REMARK   77  A    between atoms: _197  and  _198
REMARK   78  A    between atoms: _201  and  _203
REMARK   79  A    between atoms: _203  and  _204
REMARK   80  A    between atoms: _203  and  _206
REMARK   81  A    between atoms: _206  and  _207
REMARK   82  A    between atoms: _212  and  _213
REMARK   83  A    between atoms: _215  and  _217
REMARK   84  A    between atoms: _217  and  _218
REMARK   85  A    between atoms: _217  and  _220
REMARK   86  A    between atoms: _220  and  _221
REMARK   87  A    between atoms: _226  and  _228
REMARK   88  A    between atoms: _228  and  _229
REMARK   89  A    between atoms: _228  and  _231
REMARK   90  A    between atoms: _231  and  _232
REMARK   91  A    between atoms: _237  and  _239
REMARK   92  A    between atoms: _239  and  _240
REMARK   93  A    between atoms: _239  and  _242
REMARK   94  A    between atoms: _242  and  _243
REMARK   95  A    between atoms: _243  and  _244
REMARK   96  A    between atoms: _246  and  _248
REMARK   97  A    between atoms: _248  and  _249
REMARK   98  A    between atoms: _248  and  _251
REMARK   99  A    between atoms: _251  and  _252
REMARK  100  A    between atoms: _257  and  _258
REMARK  101  A    between atoms: _260  and  _262
REMARK  102  A    between atoms: _262  and  _263
REMARK  103  A    between atoms: _262  and  _265
REMARK  104  A    between atoms: _265  and  _266
REMARK  105  A    between atoms: _269  and  _271
REMARK  106  A    between atoms: _271  and  _272
REMARK  107  A    between atoms: _271  and  _274
REMARK  108  A    between atoms: _274  and  _275
REMARK  109  A    between atoms: _275  and  _558
REMARK  110  A    between atoms: _276  and  _278
REMARK  111  A    between atoms: _278  and  _279
REMARK  112  A    between atoms: _278  and  _281
REMARK  113  A    between atoms: _281  and  _282
REMARK  114  A    between atoms: _285  and  _287
REMARK  115  A    between atoms: _287  and  _288
REMARK  116  A    between atoms: _287  and  _290
REMARK  117  A    between atoms: _290  and  _291
REMARK  118  A    between atoms: _296  and  _297
REMARK  119  A    between atoms: _299  and  _301
REMARK  120  A    between atoms: _301  and  _302
REMARK  121  A    between atoms: _301  and  _304
REMARK  122  A    between atoms: _304  and  _305
REMARK  123  A    between atoms: _310  and  _311
REMARK  124  A    between atoms: _313  and  _315
REMARK  125  A    between atoms: _315  and  _316
REMARK  126  A    between atoms: _315  and  _318
REMARK  127  A    between atoms: _318  and  _319
REMARK  128  A    between atoms: _319  and  _320
REMARK  129  A    between atoms: _323  and  _325
REMARK  130  A    between atoms: _325  and  _326
REMARK  131  A    between atoms: _325  and  _328
REMARK  132  A    between atoms: _328  and  _329
REMARK  133  A    between atoms: _334  and  _335
REMARK  134  A    between atoms: _337  and  _339
REMARK  135  A    between atoms: _339  and  _340
REMARK  136  A    between atoms: _339  and  _342
REMARK  137  A    between atoms: _342  and  _343
REMARK  138  A    between atoms: _348  and  _350
REMARK  139  A    between atoms: _350  and  _351
REMARK  140  A    between atoms: _350  and  _353
REMARK  141  A    between atoms: _353  and  _354
REMARK  142  A    between atoms: _357  and  _359
REMARK  143  A    between atoms: _359  and  _360
REMARK  144  A    between atoms: _359  and  _362
REMARK  145  A    between atoms: _362  and  _363
REMARK  146  A    between atoms: _368  and  _370
REMARK  147  A    between atoms: _370  and  _371
REMARK  148  A    between atoms: _370  and  _373
REMARK  149  A    between atoms: _373  and  _374
REMARK  150  A    between atoms: _384  and  _386
REMARK  151  A    between atoms: _386  and  _387
REMARK  152  A    between atoms: _386  and  _389
REMARK  153  A    between atoms: _389  and  _390
REMARK  154  A    between atoms: _390  and  _391
REMARK  155  A    between atoms: _391  and  _392
REMARK  156  A    between atoms: _392  and  _393
REMARK  157  A    between atoms: _397  and  _399
REMARK  158  A    between atoms: _399  and  _400
REMARK  159  A    between atoms: _399  and  _402
REMARK  160  A    between atoms: _402  and  _403
REMARK  161  A    between atoms: _406  and  _408
REMARK  162  A    between atoms: _408  and  _409
REMARK  163  A    between atoms: _408  and  _411
REMARK  164  A    between atoms: _411  and  _412
REMARK  165  A    between atoms: _418  and  _420
REMARK  166  A    between atoms: _420  and  _421
REMARK  167  A    between atoms: _420  and  _423
REMARK  168  A    between atoms: _423  and  _424
REMARK  169  A    between atoms: _427  and  _429
REMARK  170  A    between atoms: _429  and  _430
REMARK  171  A    between atoms: _429  and  _432
REMARK  172  A    between atoms: _432  and  _433
REMARK  173  A    between atoms: _436  and  _438
REMARK  174  A    between atoms: _438  and  _439
REMARK  175  A    between atoms: _438  and  _441
REMARK  176  A    between atoms: _441  and  _442
REMARK  177  A    between atoms: _445  and  _447
REMARK  178  A    between atoms: _447  and  _448
REMARK  179  A    between atoms: _447  and  _450
REMARK  180  A    between atoms: _450  and  _451
REMARK  181  A    between atoms: _451  and  _452
REMARK  182  A    between atoms: _452  and  _453
REMARK  183  A    between atoms: _462  and  _464
REMARK  184  A    between atoms: _464  and  _465
REMARK  185  A    between atoms: _464  and  _467
REMARK  186  A    between atoms: _467  and  _468
REMARK  187  A    between atoms: _473  and  _475
REMARK  188  A    between atoms: _475  and  _476
REMARK  189  A    between atoms: _475  and  _478
REMARK  190  A    between atoms: _478  and  _479
REMARK  191  A    between atoms: _479  and  _480
REMARK  192  A    between atoms: _485  and  _487
REMARK  193  A    between atoms: _487  and  _488
REMARK  194  A    between atoms: _490  and  _492
REMARK  195  A    between atoms: _492  and  _493
REMARK  196  A    between atoms: _492  and  _495
REMARK  197  A    between atoms: _495  and  _496
REMARK  198  A    between atoms: _502  and  _504
REMARK  199  A    between atoms: _504  and  _505
REMARK  200  A    between atoms: _508  and  _510
REMARK  201  A    between atoms: _510  and  _511
REMARK  202  A    between atoms: _510  and  _513
REMARK  203  A    between atoms: _513  and  _514
REMARK  204  A    between atoms: _514  and  _515
REMARK  205  A    between atoms: _515  and  _516
REMARK  206  A    between atoms: _525  and  _527
REMARK  207  A    between atoms: _527  and  _528
REMARK  208  A    between atoms: _531  and  _533
REMARK  209  A    between atoms: _533  and  _534
REMARK  210  A    between atoms: _536  and  _538
REMARK  211  A    between atoms: _538  and  _539
REMARK  212  A    between atoms: _538  and  _541
REMARK  213  A    between atoms: _541  and  _542
REMARK  214  A    between atoms: _552  and  _554
REMARK  215  A    between atoms: _554  and  _555
REMARK  216  A    between atoms: _554  and  _557
REMARK  217  A    between atoms: _557  and  _558
REMARK  218  A    between atoms: _559  and  _561
REMARK  219  A    between atoms: _561  and  _562
REMARK  220  A    between atoms: _565  and  _567
REMARK  221  A    between atoms: _567  and  _568
REMARK  222  A    between atoms: _567  and  _570
REMARK  223  A    between atoms: _570  and  _571
REMARK  224  A    between atoms: _574  and  _576
REMARK  225  A    between atoms: _576  and  _577
REMARK  226  A    between atoms: _576  and  _579
REMARK  227  A    between atoms: _579  and  _580
REMARK  228  A    between atoms: _585  and  _586
REMARK  229  A    between atoms: _588  and  _590
REMARK  230  A    between atoms: _590  and  _591
REMARK  231  A    between atoms: _590  and  _593
REMARK  232  A    between atoms: _593  and  _594
REMARK  233  A    between atoms: _596  and  _598
REMARK  234  A    between atoms: _598  and  _599
REMARK  235  A    between atoms: _598  and  _601
REMARK  236  A    between atoms: _601  and  _602
REMARK  237  A    between atoms: _608  and  _610
REMARK  238  A    between atoms: _610  and  _611
REMARK  239  A    between atoms: _610  and  _613
REMARK  240  A    between atoms: _613  and  _614
REMARK  241  A    between atoms: _617  and  _619
REMARK  242  A    between atoms: _619  and  _620
REMARK  243  A    between atoms: _619  and  _622
REMARK  244  A    between atoms: _622  and  _623
REMARK  245  A    between atoms: _625  and  _627
REMARK  246  A    between atoms: _627  and  _628
REMARK  247  A    between atoms: _627  and  _630
REMARK  248  A    between atoms: _630  and  _631
REMARK  249  A    between atoms: _636  and  _638
REMARK  250  A    between atoms: _638  and  _639
REMARK  251  A    between atoms: _638  and  _641
REMARK  252  A    between atoms: _641  and  _642
REMARK  253  A    between atoms: _647  and  _649
REMARK  254  A    between atoms: _649  and  _650
REMARK  255  A    between atoms: _649  and  _652
REMARK  256  A    between atoms: _652  and  _653
REMARK  257  A    between atoms: _656  and  _658
REMARK  258  A    between atoms: _658  and  _659
REMARK  259  A    between atoms: _662  and  _664
REMARK  260  A    between atoms: _664  and  _665
REMARK  261  A    between atoms: _664  and  _667
REMARK  262  A    between atoms: _667  and  _668
REMARK  263  A    between atoms: _673  and  _674
REMARK  264  A    between atoms: _676  and  _678
REMARK  265  A    between atoms: _678  and  _679
REMARK  266  A    between atoms: _678  and  _681
REMARK  267  A    between atoms: _681  and  _682
REMARK  268  A    between atoms: _687  and  _688
REMARK  269  A    between atoms: _690  and  _692
REMARK  270  A    between atoms: _692  and  _693
REMARK  271  A    between atoms: _692  and  _695
REMARK  272  A    between atoms: _698  and  _700
REMARK  273  A    between atoms: _700  and  _701
REMARK  274  A    between atoms: _700  and  _703
REMARK  275  A    between atoms: _703  and  _704
REMARK  276  A    between atoms: _709  and  _711
REMARK  277  A    between atoms: _711  and  _712
REMARK  278  A    between atoms: _715  and  _717
REMARK  279  A    between atoms: _717  and  _718
REMARK  280  A    between atoms: _717  and  _720
REMARK  281  A    between atoms: _720  and  _721
REMARK  282  A    between atoms: _721  and  _722
REMARK  283  A    between atoms: _722  and  _723
REMARK  284  A    between atoms: _732  and  _734
REMARK  285  A    between atoms: _734  and  _735
REMARK  286  A    between atoms: _734  and  _737
REMARK  287  A    between atoms: _737  and  _738
REMARK  288  A    between atoms: _741  and  _743
REMARK  289  A    between atoms: _743  and  _744
REMARK  290  A    between atoms: _743  and  _746
REMARK  291  A    between atoms: _746  and  _747
REMARK  292  A    between atoms: _750  and  _752
REMARK  293  A    between atoms: _752  and  _753
REMARK  294  A    between atoms: _752  and  _755
REMARK  295  A    between atoms: _755  and  _756
REMARK  296  A    between atoms: _797  and  _800
REMARK                            x       y       z     vdW  Elec       q    Type
REMARK                         _______ _______ _______ _____ _____    ______ ____
ROOT
ATOM      1  CG  TYR A   1       5.097  13.843  25.629  0.00  0.00    -0.020 A 
ATOM      2  CD2 TYR A   1       6.466  13.891  25.388  0.00  0.00    -0.001 A 
ATOM      3  CE2 TYR A   1       7.004  14.838  24.530  0.00  0.00    +0.036 A 
ATOM      4  CZ  TYR A   1       6.164  15.711  23.868  0.00  0.00    +0.134 A 
ATOM      5  CE1 TYR A   1       4.805  15.667  24.082  0.00  0.00    +0.036 A 
ATOM      6  CD1 TYR A   1       4.274  14.740  24.956  0.00  0.00    -0.001 A 
ENDROOT
BRANCH   4   7
ATOM      7  OH  TYR A   1       6.702  16.657  23.008  0.00  0.00    -0.506 OA
ATOM      8  HH  TYR A   1       7.319  17.246  23.511  0.00  0.00    +0.292 HD
ENDBRANCH   4   7
BRANCH   1   9
ATOM      9  CB  TYR A   1       4.540  12.833  26.599  0.00  0.00    +0.051 C 
BRANCH   9  10
ATOM     10  CA  TYR A   1       3.257  12.112  26.215  0.00  0.00    +0.137 C 
BRANCH  10  11
ATOM     11  N   TYR A   1       2.860  11.244  27.333  0.00  0.00    -0.239 NA
ATOM     12  H   TYR A   1       3.592  10.842  27.953  0.00  0.00    +0.142 HD
ENDBRANCH  10  11
BRANCH  10  13
ATOM     13  C   TYR A   1       3.444  11.245  24.971  0.00  0.00    +0.224 C 
ATOM     14  O   TYR A   1       2.736  11.407  23.969  0.00  0.00    -0.287 OA
ENDBRANCH  10  13
ENDBRANCH   9  10
ENDBRANCH   1   9
TORSDOF 5
REMARK  Name = ../refined-set-2016/1b1h/1b1h_pocket.pdb
REMARK  296 active torsions:
REMARK  status: ('A' for Active; 'I' for Inactive)
REMARK    1  A    between atoms: _1  and  _3
REMARK    2  A    between atoms: _3  and  _4
REMARK    3  A    between atoms: _3  and  _6
REMARK    4  A    between atoms: _6  and  _7
REMARK    5  A    between atoms: _12  and  _14
REMARK    6  A    between atoms: _14  and  _15
REMARK    7  A    between atoms: _17  and  _19
REMARK    8  A    between atoms: _19  and  _20
REMARK    9  A    between atoms: _19  and  _22
REMARK   10  A    between atoms: _22  and  _23
REMARK   11  A    between atoms: _25  and  _27
REMARK   12  A    between atoms: _27  and  _28
REMARK   13  A    between atoms: _27  and  _30
REMARK   14  A    between atoms: _30  and  _31
REMARK   15  A    between atoms: _31  and  _32
REMARK   16  A    between atoms: _37  and  _39
REMARK   17  A    between atoms: _39  and  _40
REMARK   18  A    between atoms: _39  and  _42
REMARK   19  A    between atoms: _42  and  _43
REMARK   20  A    between atoms: _46  and  _48
REMARK   21  A    between atoms: _48  and  _49
REMARK   22  A    between atoms: _48  and  _51
REMARK   23  A    between atoms: _51  and  _52
REMARK   24  A    between atoms: _52  and  _53
REMARK   25  A    between atoms: _56  and  _58
REMARK   26  A    between atoms: _58  and  _59
REMARK   27  A    between atoms: _61  and  _63
REMARK   28  A    between atoms: _63  and  _64
REMARK   29  A    between atoms: _63  and  _66
REMARK   30  A    between atoms: _70  and  _71
REMARK   31  A    between atoms: _76  and  _78
REMARK   32  A    between atoms: _78  and  _79
REMARK   33  A    between atoms: _78  and  _81
REMARK   34  A    between atoms: _81  and  _82
REMARK   35  A    between atoms: _82  and  _83
REMARK   36  A    between atoms: _86  and  _88
REMARK   37  A    between atoms: _88  and  _89
REMARK   38  A    between atoms: _88  and  _91
REMARK   39  A    between atoms: _91  and  _92
REMARK   40  A    between atoms: _94  and  _96
REMARK   41  A    between atoms: _96  and  _97
REMARK   42  A    between atoms: _96  and  _99
REMARK   43  A    between atoms: _99  and  _100
REMARK   44  A    between atoms: _105  and  _107
REMARK   45  A    between atoms: _107  and  _108
REMARK   46  A    between atoms: _107  and  _110
REMARK   47  A    between atoms: _110  and  _111
REMARK   48  A    between atoms: _111  and  _112
REMARK   49  A    between atoms: _112  and  _113
REMARK   50  A    between atoms: _123  and  _124
REMARK   51  A    between atoms: _129  and  _131
REMARK   52  A    between atoms: _131  and  _132
REMARK   53  A    between atoms: _131  and  _134
REMARK   54  A    between atoms: _134  and  _135
REMARK   55  A    between atoms: _140  and  _141
REMARK   56  A    between atoms: _143  and  _145
REMARK   57  A    between atoms: _145  and  _146
REMARK   58  A    between atoms: _145  and  _148
REMARK   59  A    between atoms: _148  and  _149
REMARK   60  A    between atoms: _154  and  _155
REMARK   61  A    between atoms: _157  and  _159
REMARK   62  A    between atoms: _159  and  _160
REMARK   63  A    between atoms: _159  and  _162
REMARK   64  A    between atoms: _165  and  _167
REMARK   65  A    between atoms: _167  and  _168
REMARK   66  A    between atoms: _167  and  _170
REMARK   67  A    between atoms: _170  and  _171
REMARK   68  A    between atoms: _177  and  _178
REMARK   69  A    between atoms: _183  and  _185
REMARK   70  A    between atoms: _185  and  _186
REMARK   71  A    between atoms: _185  and  _188
REMARK   72  A    between atoms: _188  and  _189
REMARK   73  A    between atoms: _191  and  _193
REMARK   74  A    between atoms: _193  and  _194
REMARK   75  A    between atoms: _193  and  _196
REMARK   76  A    between atoms: _196  and  _197
REMARK   77  A    between atoms: _197  and  _198
REMARK   78  A    between atoms: _201  and  _203
REMARK   79  A    between atoms: _203  and  _204
REMARK   80  A    between atoms: _203  and  _206
REMARK   81  A    between atoms: _206  and  _207
REMARK   82  A    between atoms: _212  and  _213
REMARK   83  A    between atoms: _215  and  _217
REMARK   84  A    between atoms: _217  and  _218
REMARK   85  A    between atoms: _217  and  _220
REMARK   86  A    between atoms: _220  and  _221
REMARK   87  A    between atoms: _226  and  _228
REMARK   88  A    between atoms: _228  and  _229
REMARK   89  A    between atoms: _228  and  _231
REMARK   90  A    between atoms: _231  and  _232
REMARK   91  A    between atoms: _237  and  _239
REMARK   92  A    between atoms: _239  and  _240
REMARK   93  A    between atoms: _239  and  _242
REMARK   94  A    between atoms: _242  and  _243
REMARK   95  A    between atoms: _243  and  _244
REMARK   96  A    between atoms: _246  and  _248
REMARK   97  A    between atoms: _248  and  _249
REMARK   98  A    between atoms: _248  and  _251
REMARK   99  A    between atoms: _251  and  _252
REMARK  100  A    between atoms: _257  and  _258
REMARK  101  A    between atoms: _260  and  _262
REMARK  102  A    between atoms: _262  and  _263
REMARK  103  A    between atoms: _262  and  _265
REMARK  104  A    between atoms: _265  and  _266
REMARK  105  A    between atoms: _269  and  _271
REMARK  106  A    between atoms: _271  and  _272
REMARK  107  A    between atoms: _271  and  _274
REMARK  108  A    between atoms: _274  and  _275
REMARK  109  A    between atoms: _275  and  _558
REMARK  110  A    between atoms: _276  and  _278
REMARK  111  A    between atoms: _278  and  _279
REMARK  112  A    between atoms: _278  and  _281
REMARK  113  A    between atoms: _281  and  _282
REMARK  114  A    between atoms: _285  and  _287
REMARK  115  A    between atoms: _287  and  _288
REMARK  116  A    between atoms: _287  and  _290
REMARK  117  A    between atoms: _290  and  _291
REMARK  118  A    between atoms: _296  and  _297
REMARK  119  A    between atoms: _299  and  _301
REMARK  120  A    between atoms: _301  and  _302
REMARK  121  A    between atoms: _301  and  _304
REMARK  122  A    between atoms: _304  and  _305
REMARK  123  A    between atoms: _310  and  _311
REMARK  124  A    between atoms: _313  and  _315
REMARK  125  A    between atoms: _315  and  _316
REMARK  126  A    between atoms: _315  and  _318
REMARK  127  A    between atoms: _318  and  _319
REMARK  128  A    between atoms: _319  and  _320
REMARK  129  A    between atoms: _323  and  _325
REMARK  130  A    between atoms: _325  and  _326
REMARK  131  A    between atoms: _325  and  _328
REMARK  132  A    between atoms: _328  and  _329
REMARK  133  A    between atoms: _334  and  _335
REMARK  134  A    between atoms: _337  and  _339
REMARK  135  A    between atoms: _339  and  _340
REMARK  136  A    between atoms: _339  and  _342
REMARK  137  A    between atoms: _342  and  _343
REMARK  138  A    between atoms: _348  and  _350
REMARK  139  A    between atoms: _350  and  _351
REMARK  140  A    between atoms: _350  and  _353
REMARK  141  A    between atoms: _353  and  _354
REMARK  142  A    between atoms: _357  and  _359
REMARK  143  A    between atoms: _359  and  _360
REMARK  144  A    between atoms: _359  and  _362
REMARK  145  A    between atoms: _362  and  _363
REMARK  146  A    between atoms: _368  and  _370
REMARK  147  A    between atoms: _370  and  _371
REMARK  148  A    between atoms: _370  and  _373
REMARK  149  A    between atoms: _373  and  _374
REMARK  150  A    between atoms: _384  and  _386
REMARK  151  A    between atoms: _386  and  _387
REMARK  152  A    between atoms: _386  and  _389
REMARK  153  A    between atoms: _389  and  _390
REMARK  154  A    between atoms: _390  and  _391
REMARK  155  A    between atoms: _391  and  _392
REMARK  156  A    between atoms: _392  and  _393
REMARK  157  A    between atoms: _397  and  _399
REMARK  158  A    between atoms: _399  and  _400
REMARK  159  A    between atoms: _399  and  _402
REMARK  160  A    between atoms: _402  and  _403
REMARK  161  A    between atoms: _406  and  _408
REMARK  162  A    between atoms: _408  and  _409
REMARK  163  A    between atoms: _408  and  _411
REMARK  164  A    between atoms: _411  and  _412
REMARK  165  A    between atoms: _418  and  _420
REMARK  166  A    between atoms: _420  and  _421
REMARK  167  A    between atoms: _420  and  _423
REMARK  168  A    between atoms: _423  and  _424
REMARK  169  A    between atoms: _427  and  _429
REMARK  170  A    between atoms: _429  and  _430
REMARK  171  A    between atoms: _429  and  _432
REMARK  172  A    between atoms: _432  and  _433
REMARK  173  A    between atoms: _436  and  _438
REMARK  174  A    between atoms: _438  and  _439
REMARK  175  A    between atoms: _438  and  _441
REMARK  176  A    between atoms: _441  and  _442
REMARK  177  A    between atoms: _445  and  _447
REMARK  178  A    between atoms: _447  and  _448
REMARK  179  A    between atoms: _447  and  _450
REMARK  180  A    between atoms: _450  and  _451
REMARK  181  A    between atoms: _451  and  _452
REMARK  182  A    between atoms: _452  and  _453
REMARK  183  A    between atoms: _462  and  _464
REMARK  184  A    between atoms: _464  and  _465
REMARK  185  A    between atoms: _464  and  _467
REMARK  186  A    between atoms: _467  and  _468
REMARK  187  A    between atoms: _473  and  _475
REMARK  188  A    between atoms: _475  and  _476
REMARK  189  A    between atoms: _475  and  _478
REMARK  190  A    between atoms: _478  and  _479
REMARK  191  A    between atoms: _479  and  _480
REMARK  192  A    between atoms: _485  and  _487
REMARK  193  A    between atoms: _487  and  _488
REMARK  194  A    between atoms: _490  and  _492
REMARK  195  A    between atoms: _492  and  _493
REMARK  196  A    between atoms: _492  and  _495
REMARK  197  A    between atoms: _495  and  _496
REMARK  198  A    between atoms: _502  and  _504
REMARK  199  A    between atoms: _504  and  _505
REMARK  200  A    between atoms: _508  and  _510
REMARK  201  A    between atoms: _510  and  _511
REMARK  202  A    between atoms: _510  and  _513
REMARK  203  A    between atoms: _513  and  _514
REMARK  204  A    between atoms: _514  and  _515
REMARK  205  A    between atoms: _515  and  _516
REMARK  206  A    between atoms: _525  and  _527
REMARK  207  A    between atoms: _527  and  _528
REMARK  208  A    between atoms: _531  and  _533
REMARK  209  A    between atoms: _533  and  _534
REMARK  210  A    between atoms: _536  and  _538
REMARK  211  A    between atoms: _538  and  _539
REMARK  212  A    between atoms: _538  and  _541
REMARK  213  A    between atoms: _541  and  _542
REMARK  214  A    between atoms: _552  and  _554
REMARK  215  A    between atoms: _554  and  _555
REMARK  216  A    between atoms: _554  and  _557
REMARK  217  A    between atoms: _557  and  _558
REMARK  218  A    between atoms: _559  and  _561
REMARK  219  A    between atoms: _561  and  _562
REMARK  220  A    between atoms: _565  and  _567
REMARK  221  A    between atoms: _567  and  _568
REMARK  222  A    between atoms: _567  and  _570
REMARK  223  A    between atoms: _570  and  _571
REMARK  224  A    between atoms: _574  and  _576
REMARK  225  A    between atoms: _576  and  _577
REMARK  226  A    between atoms: _576  and  _579
REMARK  227  A    between atoms: _579  and  _580
REMARK  228  A    between atoms: _585  and  _586
REMARK  229  A    between atoms: _588  and  _590
REMARK  230  A    between atoms: _590  and  _591
REMARK  231  A    between atoms: _590  and  _593
REMARK  232  A    between atoms: _593  and  _594
REMARK  233  A    between atoms: _596  and  _598
REMARK  234  A    between atoms: _598  and  _599
REMARK  235  A    between atoms: _598  and  _601
REMARK  236  A    between atoms: _601  and  _602
REMARK  237  A    between atoms: _608  and  _610
REMARK  238  A    between atoms: _610  and  _611
REMARK  239  A    between atoms: _610  and  _613
REMARK  240  A    between atoms: _613  and  _614
REMARK  241  A    between atoms: _617  and  _619
REMARK  242  A    between atoms: _619  and  _620
REMARK  243  A    between atoms: _619  and  _622
REMARK  244  A    between atoms: _622  and  _623
REMARK  245  A    between atoms: _625  and  _627
REMARK  246  A    between atoms: _627  and  _628
REMARK  247  A    between atoms: _627  and  _630
REMARK  248  A    between atoms: _630  and  _631
REMARK  249  A    between atoms: _636  and  _638
REMARK  250  A    between atoms: _638  and  _639
REMARK  251  A    between atoms: _638  and  _641
REMARK  252  A    between atoms: _641  and  _642
REMARK  253  A    between atoms: _647  and  _649
REMARK  254  A    between atoms: _649  and  _650
REMARK  255  A    between atoms: _649  and  _652
REMARK  256  A    between atoms: _652  and  _653
REMARK  257  A    between atoms: _656  and  _658
REMARK  258  A    between atoms: _658  and  _659
REMARK  259  A    between atoms: _662  and  _664
REMARK  260  A    between atoms: _664  and  _665
REMARK  261  A    between atoms: _664  and  _667
REMARK  262  A    between atoms: _667  and  _668
REMARK  263  A    between atoms: _673  and  _674
REMARK  264  A    between atoms: _676  and  _678
REMARK  265  A    between atoms: _678  and  _679
REMARK  266  A    between atoms: _678  and  _681
REMARK  267  A    between atoms: _681  and  _682
REMARK  268  A    between atoms: _687  and  _688
REMARK  269  A    between atoms: _690  and  _692
REMARK  270  A    between atoms: _692  and  _693
REMARK  271  A    between atoms: _692  and  _695
REMARK  272  A    between atoms: _698  and  _700
REMARK  273  A    between atoms: _700  and  _701
REMARK  274  A    between atoms: _700  and  _703
REMARK  275  A    between atoms: _703  and  _704
REMARK  276  A    between atoms: _709  and  _711
REMARK  277  A    between atoms: _711  and  _712
REMARK  278  A    between atoms: _715  and  _717
REMARK  279  A    between atoms: _717  and  _718
REMARK  280  A    between atoms: _717  and  _720
REMARK  281  A    between atoms: _720  and  _721
REMARK  282  A    between atoms: _721  and  _722
REMARK  283  A    between atoms: _722  and  _723
REMARK  284  A    between atoms: _732  and  _734
REMARK  285  A    between atoms: _734  and  _735
REMARK  286  A    between atoms: _734  and  _737
REMARK  287  A    between atoms: _737  and  _738
REMARK  288  A    between atoms: _741  and  _743
REMARK  289  A    between atoms: _743  and  _744
REMARK  290  A    between atoms: _743  and  _746
REMARK  291  A    between atoms: _746  and  _747
REMARK  292  A    between atoms: _750  and  _752
REMARK  293  A    between atoms: _752  and  _753
REMARK  294  A    between atoms: _752  and  _755
REMARK  295  A    between atoms: _755  and  _756
REMARK  296  A    between atoms: _797  and  _800
REMARK                            x       y       z     vdW  Elec       q    Type
REMARK                         _______ _______ _______ _____ _____    ______ ____
ROOT
ATOM      1  CB  ASN A   1      -3.045  28.028  17.103  0.00  0.00    +0.110 C 
ENDROOT
BRANCH   1   2
ATOM      2  CG  ASN A   1      -3.365  26.548  17.030  0.00  0.00    +0.221 C 
ATOM      3  OD1 ASN A   1      -3.338  25.857  18.060  0.00  0.00    -0.275 OA
ATOM      4  ND2 ASN A   1      -3.646  26.051  15.832  0.00  0.00    -0.329 N 
ATOM      5 HD21 ASN A   1      -3.857  25.038  15.726  0.00  0.00    +0.145 HD
ATOM      6 HD22 ASN A   1      -3.655  26.674  15.000  0.00  0.00    +0.145 HD
ENDBRANCH   1   2
BRANCH   1   7
ATOM      7  CA  ASN A   1      -3.973  28.803  18.031  0.00  0.00    +0.142 C 
BRANCH   7   8
ATOM      8  N   ASN A   1      -4.012  28.199  19.376  0.00  0.00    -0.239 NA
ATOM      9  H   ASN A   1      -3.831  27.184  19.514  0.00  0.00    +0.142 HD
ENDBRANCH   7   8
BRANCH   7  10
ATOM     10  C   ASN A   1      -5.389  28.868  17.463  0.00  0.00    +0.225 C 
ATOM     11  O   ASN A   1      -6.178  27.939  17.608  0.00  0.00    -0.287 OA
ENDBRANCH   7  10
ENDBRANCH   1   7
TORSDOF 4
REMARK  Name = ../refined-set-2016/1b1h/1b1h_pocket.pdb
REMARK  296 active torsions:
REMARK  status: ('A' for Active; 'I' for Inactive)
REMARK    1  A    between atoms: _1  and  _3
REMARK    2  A    between atoms: _3  and  _4
REMARK    3  A    between atoms: _3  and  _6
REMARK    4  A    between atoms: _6  and  _7
REMARK    5  A    between atoms: _12  and  _14
REMARK    6  A    between atoms: _14  and  _15
REMARK    7  A    between atoms: _17  and  _19
REMARK    8  A    between atoms: _19  and  _20
REMARK    9  A    between atoms: _19  and  _22
REMARK   10  A    between atoms: _22  and  _23
REMARK   11  A    between atoms: _25  and  _27
REMARK   12  A    between atoms: _27  and  _28
REMARK   13  A    between atoms: _27  and  _30
REMARK   14  A    between atoms: _30  and  _31
REMARK   15  A    between atoms: _31  and  _32
REMARK   16  A    between atoms: _37  and  _39
REMARK   17  A    between atoms: _39  and  _40
REMARK   18  A    between atoms: _39  and  _42
REMARK   19  A    between atoms: _42  and  _43
REMARK   20  A    between atoms: _46  and  _48
REMARK   21  A    between atoms: _48  and  _49
REMARK   22  A    between atoms: _48  and  _51
REMARK   23  A    between atoms: _51  and  _52
REMARK   24  A    between atoms: _52  and  _53
REMARK   25  A    between atoms: _56  and  _58
REMARK   26  A    between atoms: _58  and  _59
REMARK   27  A    between atoms: _61  and  _63
REMARK   28  A    between atoms: _63  and  _64
REMARK   29  A    between atoms: _63  and  _66
REMARK   30  A    between atoms: _70  and  _71
REMARK   31  A    between atoms: _76  and  _78
REMARK   32  A    between atoms: _78  and  _79
REMARK   33  A    between atoms: _78  and  _81
REMARK   34  A    between atoms: _81  and  _82
REMARK   35  A    between atoms: _82  and  _83
REMARK   36  A    between atoms: _86  and  _88
REMARK   37  A    between atoms: _88  and  _89
REMARK   38  A    between atoms: _88  and  _91
REMARK   39  A    between atoms: _91  and  _92
REMARK   40  A    between atoms: _94  and  _96
REMARK   41  A    between atoms: _96  and  _97
REMARK   42  A    between atoms: _96  and  _99
REMARK   43  A    between atoms: _99  and  _100
REMARK   44  A    between atoms: _105  and  _107
REMARK   45  A    between atoms: _107  and  _108
REMARK   46  A    between atoms: _107  and  _110
REMARK   47  A    between atoms: _110  and  _111
REMARK   48  A    between atoms: _111  and  _112
REMARK   49  A    between atoms: _112  and  _113
REMARK   50  A    between atoms: _123  and  _124
REMARK   51  A    between atoms: _129  and  _131
REMARK   52  A    between atoms: _131  and  _132
REMARK   53  A    between atoms: _131  and  _134
REMARK   54  A    between atoms: _134  and  _135
REMARK   55  A    between atoms: _140  and  _141
REMARK   56  A    between atoms: _143  and  _145
REMARK   57  A    between atoms: _145  and  _146
REMARK   58  A    between atoms: _145  and  _148
REMARK   59  A    between atoms: _148  and  _149
REMARK   60  A    between atoms: _154  and  _155
REMARK   61  A    between atoms: _157  and  _159
REMARK   62  A    between atoms: _159  and  _160
REMARK   63  A    between atoms: _159  and  _162
REMARK   64  A    between atoms: _165  and  _167
REMARK   65  A    between atoms: _167  and  _168
REMARK   66  A    between atoms: _167  and  _170
REMARK   67  A    between atoms: _170  and  _171
REMARK   68  A    between atoms: _177  and  _178
REMARK   69  A    between atoms: _183  and  _185
REMARK   70  A    between atoms: _185  and  _186
REMARK   71  A    between atoms: _185  and  _188
REMARK   72  A    between atoms: _188  and  _189
REMARK   73  A    between atoms: _191  and  _193
REMARK   74  A    between atoms: _193  and  _194
REMARK   75  A    between atoms: _193  and  _196
REMARK   76  A    between atoms: _196  and  _197
REMARK   77  A    between atoms: _197  and  _198
REMARK   78  A    between atoms: _201  and  _203
REMARK   79  A    between atoms: _203  and  _204
REMARK   80  A    between atoms: _203  and  _206
REMARK   81  A    between atoms: _206  and  _207
REMARK   82  A    between atoms: _212  and  _213
REMARK   83  A    between atoms: _215  and  _217
REMARK   84  A    between atoms: _217  and  _218
REMARK   85  A    between atoms: _217  and  _220
REMARK   86  A    between atoms: _220  and  _221
REMARK   87  A    between atoms: _226  and  _228
REMARK   88  A    between atoms: _228  and  _229
REMARK   89  A    between atoms: _228  and  _231
REMARK   90  A    between atoms: _231  and  _232
REMARK   91  A    between atoms: _237  and  _239
REMARK   92  A    between atoms: _239  and  _240
REMARK   93  A    between atoms: _239  and  _242
REMARK   94  A    between atoms: _242  and  _243
REMARK   95  A    between atoms: _243  and  _244
REMARK   96  A    between atoms: _246  and  _248
REMARK   97  A    between atoms: _248  and  _249
REMARK   98  A    between atoms: _248  and  _251
REMARK   99  A    between atoms: _251  and  _252
REMARK  100  A    between atoms: _257  and  _258
REMARK  101  A    between atoms: _260  and  _262
REMARK  102  A    between atoms: _262  and  _263
REMARK  103  A    between atoms: _262  and  _265
REMARK  104  A    between atoms: _265  and  _266
REMARK  105  A    between atoms: _269  and  _271
REMARK  106  A    between atoms: _271  and  _272
REMARK  107  A    between atoms: _271  and  _274
REMARK  108  A    between atoms: _274  and  _275
REMARK  109  A    between atoms: _275  and  _558
REMARK  110  A    between atoms: _276  and  _278
REMARK  111  A    between atoms: _278  and  _279
REMARK  112  A    between atoms: _278  and  _281
REMARK  113  A    between atoms: _281  and  _282
REMARK  114  A    between atoms: _285  and  _287
REMARK  115  A    between atoms: _287  and  _288
REMARK  116  A    between atoms: _287  and  _290
REMARK  117  A    between atoms: _290  and  _291
REMARK  118  A    between atoms: _296  and  _297
REMARK  119  A    between atoms: _299  and  _301
REMARK  120  A    between atoms: _301  and  _302
REMARK  121  A    between atoms: _301  and  _304
REMARK  122  A    between atoms: _304  and  _305
REMARK  123  A    between atoms: _310  and  _311
REMARK  124  A    between atoms: _313  and  _315
REMARK  125  A    between atoms: _315  and  _316
REMARK  126  A    between atoms: _315  and  _318
REMARK  127  A    between atoms: _318  and  _319
REMARK  128  A    between atoms: _319  and  _320
REMARK  129  A    between atoms: _323  and  _325
REMARK  130  A    between atoms: _325  and  _326
REMARK  131  A    between atoms: _325  and  _328
REMARK  132  A    between atoms: _328  and  _329
REMARK  133  A    between atoms: _334  and  _335
REMARK  134  A    between atoms: _337  and  _339
REMARK  135  A    between atoms: _339  and  _340
REMARK  136  A    between atoms: _339  and  _342
REMARK  137  A    between atoms: _342  and  _343
REMARK  138  A    between atoms: _348  and  _350
REMARK  139  A    between atoms: _350  and  _351
REMARK  140  A    between atoms: _350  and  _353
REMARK  141  A    between atoms: _353  and  _354
REMARK  142  A    between atoms: _357  and  _359
REMARK  143  A    between atoms: _359  and  _360
REMARK  144  A    between atoms: _359  and  _362
REMARK  145  A    between atoms: _362  and  _363
REMARK  146  A    between atoms: _368  and  _370
REMARK  147  A    between atoms: _370  and  _371
REMARK  148  A    between atoms: _370  and  _373
REMARK  149  A    between atoms: _373  and  _374
REMARK  150  A    between atoms: _384  and  _386
REMARK  151  A    between atoms: _386  and  _387
REMARK  152  A    between atoms: _386  and  _389
REMARK  153  A    between atoms: _389  and  _390
REMARK  154  A    between atoms: _390  and  _391
REMARK  155  A    between atoms: _391  and  _392
REMARK  156  A    between atoms: _392  and  _393
REMARK  157  A    between atoms: _397  and  _399
REMARK  158  A    between atoms: _399  and  _400
REMARK  159  A    between atoms: _399  and  _402
REMARK  160  A    between atoms: _402  and  _403
REMARK  161  A    between atoms: _406  and  _408
REMARK  162  A    between atoms: _408  and  _409
REMARK  163  A    between atoms: _408  and  _411
REMARK  164  A    between atoms: _411  and  _412
REMARK  165  A    between atoms: _418  and  _420
REMARK  166  A    between atoms: _420  and  _421
REMARK  167  A    between atoms: _420  and  _423
REMARK  168  A    between atoms: _423  and  _424
REMARK  169  A    between atoms: _427  and  _429
REMARK  170  A    between atoms: _429  and  _430
REMARK  171  A    between atoms: _429  and  _432
REMARK  172  A    between atoms: _432  and  _433
REMARK  173  A    between atoms: _436  and  _438
REMARK  174  A    between atoms: _438  and  _439
REMARK  175  A    between atoms: _438  and  _441
REMARK  176  A    between atoms: _441  and  _442
REMARK  177  A    between atoms: _445  and  _447
REMARK  178  A    between atoms: _447  and  _448
REMARK  179  A    between atoms: _447  and  _450
REMARK  180  A    between atoms: _450  and  _451
REMARK  181  A    between atoms: _451  and  _452
REMARK  182  A    between atoms: _452  and  _453
REMARK  183  A    between atoms: _462  and  _464
REMARK  184  A    between atoms: _464  and  _465
REMARK  185  A    between atoms: _464  and  _467
REMARK  186  A    between atoms: _467  and  _468
REMARK  187  A    between atoms: _473  and  _475
REMARK  188  A    between atoms: _475  and  _476
REMARK  189  A    between atoms: _475  and  _478
REMARK  190  A    between atoms: _478  and  _479
REMARK  191  A    between atoms: _479  and  _480
REMARK  192  A    between atoms: _485  and  _487
REMARK  193  A    between atoms: _487  and  _488
REMARK  194  A    between atoms: _490  and  _492
REMARK  195  A    between atoms: _492  and  _493
REMARK  196  A    between atoms: _492  and  _495
REMARK  197  A    between atoms: _495  and  _496
REMARK  198  A    between atoms: _502  and  _504
REMARK  199  A    between atoms: _504  and  _505
REMARK  200  A    between atoms: _508  and  _510
REMARK  201  A    between atoms: _510  and  _511
REMARK  202  A    between atoms: _510  and  _513
REMARK  203  A    between atoms: _513  and  _514
REMARK  204  A    between atoms: _514  and  _515
REMARK  205  A    between atoms: _515  and  _516
REMARK  206  A    between atoms: _525  and  _527
REMARK  207  A    between atoms: _527  and  _528
REMARK  208  A    between atoms: _531  and  _533
REMARK  209  A    between atoms: _533  and  _534
REMARK  210  A    between atoms: _536  and  _538
REMARK  211  A    between atoms: _538  and  _539
REMARK  212  A    between atoms: _538  and  _541
REMARK  213  A    between atoms: _541  and  _542
REMARK  214  A    between atoms: _552  and  _554
REMARK  215  A    between atoms: _554  and  _555
REMARK  216  A    between atoms: _554  and  _557
REMARK  217  A    between atoms: _557  and  _558
REMARK  218  A    between atoms: _559  and  _561
REMARK  219  A    between atoms: _561  and  _562
REMARK  220  A    between atoms: _565  and  _567
REMARK  221  A    between atoms: _567  and  _568
REMARK  222  A    between atoms: _567  and  _570
REMARK  223  A    between atoms: _570  and  _571
REMARK  224  A    between atoms: _574  and  _576
REMARK  225  A    between atoms: _576  and  _577
REMARK  226  A    between atoms: _576  and  _579
REMARK  227  A    between atoms: _579  and  _580
REMARK  228  A    between atoms: _585  and  _586
REMARK  229  A    between atoms: _588  and  _590
REMARK  230  A    between atoms: _590  and  _591
REMARK  231  A    between atoms: _590  and  _593
REMARK  232  A    between atoms: _593  and  _594
REMARK  233  A    between atoms: _596  and  _598
REMARK  234  A    between atoms: _598  and  _599
REMARK  235  A    between atoms: _598  and  _601
REMARK  236  A    between atoms: _601  and  _602
REMARK  237  A    between atoms: _608  and  _610
REMARK  238  A    between atoms: _610  and  _611
REMARK  239  A    between atoms: _610  and  _613
REMARK  240  A    between atoms: _613  and  _614
REMARK  241  A    between atoms: _617  and  _619
REMARK  242  A    between atoms: _619  and  _620
REMARK  243  A    between atoms: _619  and  _622
REMARK  244  A    between atoms: _622  and  _623
REMARK  245  A    between atoms: _625  and  _627
REMARK  246  A    between atoms: _627  and  _628
REMARK  247  A    between atoms: _627  and  _630
REMARK  248  A    between atoms: _630  and  _631
REMARK  249  A    between atoms: _636  and  _638
REMARK  250  A    between atoms: _638  and  _639
REMARK  251  A    between atoms: _638  and  _641
REMARK  252  A    between atoms: _641  and  _642
REMARK  253  A    between atoms: _647  and  _649
REMARK  254  A    between atoms: _649  and  _650
REMARK  255  A    between atoms: _649  and  _652
REMARK  256  A    between atoms: _652  and  _653
REMARK  257  A    between atoms: _656  and  _658
REMARK  258  A    between atoms: _658  and  _659
REMARK  259  A    between atoms: _662  and  _664
REMARK  260  A    between atoms: _664  and  _665
REMARK  261  A    between atoms: _664  and  _667
REMARK  262  A    between atoms: _667  and  _668
REMARK  263  A    between atoms: _673  and  _674
REMARK  264  A    between atoms: _676  and  _678
REMARK  265  A    between atoms: _678  and  _679
REMARK  266  A    between atoms: _678  and  _681
REMARK  267  A    between atoms: _681  and  _682
REMARK  268  A    between atoms: _687  and  _688
REMARK  269  A    between atoms: _690  and  _692
REMARK  270  A    between atoms: _692  and  _693
REMARK  271  A    between atoms: _692  and  _695
REMARK  272  A    between atoms: _698  and  _700
REMARK  273  A    between atoms: _700  and  _701
REMARK  274  A    between atoms: _700  and  _703
REMARK  275  A    between atoms: _703  and  _704
REMARK  276  A    between atoms: _709  and  _711
REMARK  277  A    between atoms: _711  and  _712
REMARK  278  A    between atoms: _715  and  _717
REMARK  279  A    between atoms: _717  and  _718
REMARK  280  A    between atoms: _717  and  _720
REMARK  281  A    between atoms: _720  and  _721
REMARK  282  A    between atoms: _721  and  _722
REMARK  283  A    between atoms: _722  and  _723
REMARK  284  A    between atoms: _732  and  _734
REMARK  285  A    between atoms: _734  and  _735
REMARK  286  A    between atoms: _734  and  _737
REMARK  287  A    between atoms: _737  and  _738
REMARK  288  A    between atoms: _741  and  _743
REMARK  289  A    between atoms: _743  and  _744
REMARK  290  A    between atoms: _743  and  _746
REMARK  291  A    between atoms: _746  and  _747
REMARK  292  A    between atoms: _750  and  _752
REMARK  293  A    between atoms: _752  and  _753
REMARK  294  A    between atoms: _752  and  _755
REMARK  295  A    between atoms: _755  and  _756
REMARK  296  A    between atoms: _797  and  _800
REMARK                            x       y       z     vdW  Elec       q    Type
REMARK                         _______ _______ _______ _____ _____    ______ ____
ROOT
ATOM      1  C   LEU A   1     -11.033  23.206  18.687  0.00  0.00    +0.238 C 
ATOM      2  O   LEU A   1     -11.483  22.818  19.779  0.00  0.00    -0.274 OA
ATOM      3  N   HIS A   2      -9.932  23.970  18.583  0.00  0.00    -0.298 N 
ATOM      4  H   HIS A   2      -9.618  24.340  17.663  0.00  0.00    +0.150 HD
ENDROOT
BRANCH   1   5
ATOM      5  CA  LEU A   1     -11.769  22.832  17.403  0.00  0.00    +0.145 C 
BRANCH   5   6
ATOM      6  N   LEU A   1     -12.010  23.968  16.512  0.00  0.00    -0.238 NA
ATOM      7  H   LEU A   1     -11.610  23.954  15.552  0.00  0.00    +0.142 HD
ENDBRANCH   5   6
BRANCH   5   8
ATOM      8  CB  LEU A   1     -10.910  21.790  16.673  0.00  0.00    +0.026 C 
BRANCH   8   9
ATOM      9  CG  LEU A   1     -10.360  20.638  17.510  0.00  0.00    +0.002 C 
ATOM     10  CD2 LEU A   1     -11.533  19.865  18.097  0.00  0.00    +0.000 C 
ATOM     11  CD1 LEU A   1      -9.507  19.740  16.613  0.00  0.00    +0.000 C 
ENDBRANCH   8   9
ENDBRANCH   5   8
ENDBRANCH   1   5
BRANCH   3  12
ATOM     12  CA  HIS A   2      -9.188  24.263  19.818  0.00  0.00    +0.143 C 
BRANCH  12  13
ATOM     13  C   HIS A   2      -9.980  25.175  20.751  0.00  0.00    +0.227 C 
ATOM     14  O   HIS A   2      -9.872  25.053  21.978  0.00  0.00    -0.286 OA
ENDBRANCH  12  13
BRANCH  12  15
ATOM     15  CB  HIS A   2      -7.788  24.852  19.562  0.00  0.00    +0.075 C 
BRANCH  15  16
ATOM     16  CG  HIS A   2      -6.979  23.928  18.698  0.00  0.00    +0.082 A 
ATOM     17  ND1 HIS A   2      -6.882  22.580  18.938  0.00  0.00    -0.227 NA
ATOM     18  CE1 HIS A   2      -6.116  22.033  18.001  0.00  0.00    +0.199 A 
ATOM     19  NE2 HIS A   2      -5.744  22.988  17.154  0.00  0.00    -0.221 NA
ATOM     20  CD2 HIS A   2      -6.251  24.185  17.582  0.00  0.00    +0.115 A 
ENDBRANCH  15  16
ENDBRANCH  12  15
ENDBRANCH   3  12
TORSDOF 8
REMARK  Name = ../refined-set-2016/1b1h/1b1h_pocket.pdb
REMARK  296 active torsions:
REMARK  status: ('A' for Active; 'I' for Inactive)
REMARK    1  A    between atoms: _1  and  _3
REMARK    2  A    between atoms: _3  and  _4
REMARK    3  A    between atoms: _3  and  _6
REMARK    4  A    between atoms: _6  and  _7
REMARK    5  A    between atoms: _12  and  _14
REMARK    6  A    between atoms: _14  and  _15
REMARK    7  A    between atoms: _17  and  _19
REMARK    8  A    between atoms: _19  and  _20
REMARK    9  A    between atoms: _19  and  _22
REMARK   10  A    between atoms: _22  and  _23
REMARK   11  A    between atoms: _25  and  _27
REMARK   12  A    between atoms: _27  and  _28
REMARK   13  A    between atoms: _27  and  _30
REMARK   14  A    between atoms: _30  and  _31
REMARK   15  A    between atoms: _31  and  _32
REMARK   16  A    between atoms: _37  and  _39
REMARK   17  A    between atoms: _39  and  _40
REMARK   18  A    between atoms: _39  and  _42
REMARK   19  A    between atoms: _42  and  _43
REMARK   20  A    between atoms: _46  and  _48
REMARK   21  A    between atoms: _48  and  _49
REMARK   22  A    between atoms: _48  and  _51
REMARK   23  A    between atoms: _51  and  _52
REMARK   24  A    between atoms: _52  and  _53
REMARK   25  A    between atoms: _56  and  _58
REMARK   26  A    between atoms: _58  and  _59
REMARK   27  A    between atoms: _61  and  _63
REMARK   28  A    between atoms: _63  and  _64
REMARK   29  A    between atoms: _63  and  _66
REMARK   30  A    between atoms: _70  and  _71
REMARK   31  A    between atoms: _76  and  _78
REMARK   32  A    between atoms: _78  and  _79
REMARK   33  A    between atoms: _78  and  _81
REMARK   34  A    between atoms: _81  and  _82
REMARK   35  A    between atoms: _82  and  _83
REMARK   36  A    between atoms: _86  and  _88
REMARK   37  A    between atoms: _88  and  _89
REMARK   38  A    between atoms: _88  and  _91
REMARK   39  A    between atoms: _91  and  _92
REMARK   40  A    between atoms: _94  and  _96
REMARK   41  A    between atoms: _96  and  _97
REMARK   42  A    between atoms: _96  and  _99
REMARK   43  A    between atoms: _99  and  _100
REMARK   44  A    between atoms: _105  and  _107
REMARK   45  A    between atoms: _107  and  _108
REMARK   46  A    between atoms: _107  and  _110
REMARK   47  A    between atoms: _110  and  _111
REMARK   48  A    between atoms: _111  and  _112
REMARK   49  A    between atoms: _112  and  _113
REMARK   50  A    between atoms: _123  and  _124
REMARK   51  A    between atoms: _129  and  _131
REMARK   52  A    between atoms: _131  and  _132
REMARK   53  A    between atoms: _131  and  _134
REMARK   54  A    between atoms: _134  and  _135
REMARK   55  A    between atoms: _140  and  _141
REMARK   56  A    between atoms: _143  and  _145
REMARK   57  A    between atoms: _145  and  _146
REMARK   58  A    between atoms: _145  and  _148
REMARK   59  A    between atoms: _148  and  _149
REMARK   60  A    between atoms: _154  and  _155
REMARK   61  A    between atoms: _157  and  _159
REMARK   62  A    between atoms: _159  and  _160
REMARK   63  A    between atoms: _159  and  _162
REMARK   64  A    between atoms: _165  and  _167
REMARK   65  A    between atoms: _167  and  _168
REMARK   66  A    between atoms: _167  and  _170
REMARK   67  A    between atoms: _170  and  _171
REMARK   68  A    between atoms: _177  and  _178
REMARK   69  A    between atoms: _183  and  _185
REMARK   70  A    between atoms: _185  and  _186
REMARK   71  A    between atoms: _185  and  _188
REMARK   72  A    between atoms: _188  and  _189
REMARK   73  A    between atoms: _191  and  _193
REMARK   74  A    between atoms: _193  and  _194
REMARK   75  A    between atoms: _193  and  _196
REMARK   76  A    between atoms: _196  and  _197
REMARK   77  A    between atoms: _197  and  _198
REMARK   78  A    between atoms: _201  and  _203
REMARK   79  A    between atoms: _203  and  _204
REMARK   80  A    between atoms: _203  and  _206
REMARK   81  A    between atoms: _206  and  _207
REMARK   82  A    between atoms: _212  and  _213
REMARK   83  A    between atoms: _215  and  _217
REMARK   84  A    between atoms: _217  and  _218
REMARK   85  A    between atoms: _217  and  _220
REMARK   86  A    between atoms: _220  and  _221
REMARK   87  A    between atoms: _226  and  _228
REMARK   88  A    between atoms: _228  and  _229
REMARK   89  A    between atoms: _228  and  _231
REMARK   90  A    between atoms: _231  and  _232
REMARK   91  A    between atoms: _237  and  _239
REMARK   92  A    between atoms: _239  and  _240
REMARK   93  A    between atoms: _239  and  _242
REMARK   94  A    between atoms: _242  and  _243
REMARK   95  A    between atoms: _243  and  _244
REMARK   96  A    between atoms: _246  and  _248
REMARK   97  A    between atoms: _248  and  _249
REMARK   98  A    between atoms: _248  and  _251
REMARK   99  A    between atoms: _251  and  _252
REMARK  100  A    between atoms: _257  and  _258
REMARK  101  A    between atoms: _260  and  _262
REMARK  102  A    between atoms: _262  and  _263
REMARK  103  A    between atoms: _262  and  _265
REMARK  104  A    between atoms: _265  and  _266
REMARK  105  A    between atoms: _269  and  _271
REMARK  106  A    between atoms: _271  and  _272
REMARK  107  A    between atoms: _271  and  _274
REMARK  108  A    between atoms: _274  and  _275
REMARK  109  A    between atoms: _275  and  _558
REMARK  110  A    between atoms: _276  and  _278
REMARK  111  A    between atoms: _278  and  _279
REMARK  112  A    between atoms: _278  and  _281
REMARK  113  A    between atoms: _281  and  _282
REMARK  114  A    between atoms: _285  and  _287
REMARK  115  A    between atoms: _287  and  _288
REMARK  116  A    between atoms: _287  and  _290
REMARK  117  A    between atoms: _290  and  _291
REMARK  118  A    between atoms: _296  and  _297
REMARK  119  A    between atoms: _299  and  _301
REMARK  120  A    between atoms: _301  and  _302
REMARK  121  A    between atoms: _301  and  _304
REMARK  122  A    between atoms: _304  and  _305
REMARK  123  A    between atoms: _310  and  _311
REMARK  124  A    between atoms: _313  and  _315
REMARK  125  A    between atoms: _315  and  _316
REMARK  126  A    between atoms: _315  and  _318
REMARK  127  A    between atoms: _318  and  _319
REMARK  128  A    between atoms: _319  and  _320
REMARK  129  A    between atoms: _323  and  _325
REMARK  130  A    between atoms: _325  and  _326
REMARK  131  A    between atoms: _325  and  _328
REMARK  132  A    between atoms: _328  and  _329
REMARK  133  A    between atoms: _334  and  _335
REMARK  134  A    between atoms: _337  and  _339
REMARK  135  A    between atoms: _339  and  _340
REMARK  136  A    between atoms: _339  and  _342
REMARK  137  A    between atoms: _342  and  _343
REMARK  138  A    between atoms: _348  and  _350
REMARK  139  A    between atoms: _350  and  _351
REMARK  140  A    between atoms: _350  and  _353
REMARK  141  A    between atoms: _353  and  _354
REMARK  142  A    between atoms: _357  and  _359
REMARK  143  A    between atoms: _359  and  _360
REMARK  144  A    between atoms: _359  and  _362
REMARK  145  A    between atoms: _362  and  _363
REMARK  146  A    between atoms: _368  and  _370
REMARK  147  A    between atoms: _370  and  _371
REMARK  148  A    between atoms: _370  and  _373
REMARK  149  A    between atoms: _373  and  _374
REMARK  150  A    between atoms: _384  and  _386
REMARK  151  A    between atoms: _386  and  _387
REMARK  152  A    between atoms: _386  and  _389
REMARK  153  A    between atoms: _389  and  _390
REMARK  154  A    between atoms: _390  and  _391
REMARK  155  A    between atoms: _391  and  _392
REMARK  156  A    between atoms: _392  and  _393
REMARK  157  A    between atoms: _397  and  _399
REMARK  158  A    between atoms: _399  and  _400
REMARK  159  A    between atoms: _399  and  _402
REMARK  160  A    between atoms: _402  and  _403
REMARK  161  A    between atoms: _406  and  _408
REMARK  162  A    between atoms: _408  and  _409
REMARK  163  A    between atoms: _408  and  _411
REMARK  164  A    between atoms: _411  and  _412
REMARK  165  A    between atoms: _418  and  _420
REMARK  166  A    between atoms: _420  and  _421
REMARK  167  A    between atoms: _420  and  _423
REMARK  168  A    between atoms: _423  and  _424
REMARK  169  A    between atoms: _427  and  _429
REMARK  170  A    between atoms: _429  and  _430
REMARK  171  A    between atoms: _429  and  _432
REMARK  172  A    between atoms: _432  and  _433
REMARK  173  A    between atoms: _436  and  _438
REMARK  174  A    between atoms: _438  and  _439
REMARK  175  A    between atoms: _438  and  _441
REMARK  176  A    between atoms: _441  and  _442
REMARK  177  A    between atoms: _445  and  _447
REMARK  178  A    between atoms: _447  and  _448
REMARK  179  A    between atoms: _447  and  _450
REMARK  180  A    between atoms: _450  and  _451
REMARK  181  A    between atoms: _451  and  _452
REMARK  182  A    between atoms: _452  and  _453
REMARK  183  A    between atoms: _462  and  _464
REMARK  184  A    between atoms: _464  and  _465
REMARK  185  A    between atoms: _464  and  _467
REMARK  186  A    between atoms: _467  and  _468
REMARK  187  A    between atoms: _473  and  _475
REMARK  188  A    between atoms: _475  and  _476
REMARK  189  A    between atoms: _475  and  _478
REMARK  190  A    between atoms: _478  and  _479
REMARK  191  A    between atoms: _479  and  _480
REMARK  192  A    between atoms: _485  and  _487
REMARK  193  A    between atoms: _487  and  _488
REMARK  194  A    between atoms: _490  and  _492
REMARK  195  A    between atoms: _492  and  _493
REMARK  196  A    between atoms: _492  and  _495
REMARK  197  A    between atoms: _495  and  _496
REMARK  198  A    between atoms: _502  and  _504
REMARK  199  A    between atoms: _504  and  _505
REMARK  200  A    between atoms: _508  and  _510
REMARK  201  A    between atoms: _510  and  _511
REMARK  202  A    between atoms: _510  and  _513
REMARK  203  A    between atoms: _513  and  _514
REMARK  204  A    between atoms: _514  and  _515
REMARK  205  A    between atoms: _515  and  _516
REMARK  206  A    between atoms: _525  and  _527
REMARK  207  A    between atoms: _527  and  _528
REMARK  208  A    between atoms: _531  and  _533
REMARK  209  A    between atoms: _533  and  _534
REMARK  210  A    between atoms: _536  and  _538
REMARK  211  A    between atoms: _538  and  _539
REMARK  212  A    between atoms: _538  and  _541
REMARK  213  A    between atoms: _541  and  _542
REMARK  214  A    between atoms: _552  and  _554
REMARK  215  A    between atoms: _554  and  _555
REMARK  216  A    between atoms: _554  and  _557
REMARK  217  A    between atoms: _557  and  _558
REMARK  218  A    between atoms: _559  and  _561
REMARK  219  A    between atoms: _561  and  _562
REMARK  220  A    between atoms: _565  and  _567
REMARK  221  A    between atoms: _567  and  _568
REMARK  222  A    between atoms: _567  and  _570
REMARK  223  A    between atoms: _570  and  _571
REMARK  224  A    between atoms: _574  and  _576
REMARK  225  A    between atoms: _576  and  _577
REMARK  226  A    between atoms: _576  and  _579
REMARK  227  A    between atoms: _579  and  _580
REMARK  228  A    between atoms: _585  and  _586
REMARK  229  A    between atoms: _588  and  _590
REMARK  230  A    between atoms: _590  and  _591
REMARK  231  A    between atoms: _590  and  _593
REMARK  232  A    between atoms: _593  and  _594
REMARK  233  A    between atoms: _596  and  _598
REMARK  234  A    between atoms: _598  and  _599
REMARK  235  A    between atoms: _598  and  _601
REMARK  236  A    between atoms: _601  and  _602
REMARK  237  A    between atoms: _608  and  _610
REMARK  238  A    between atoms: _610  and  _611
REMARK  239  A    between atoms: _610  and  _613
REMARK  240  A    between atoms: _613  and  _614
REMARK  241  A    between atoms: _617  and  _619
REMARK  242  A    between atoms: _619  and  _620
REMARK  243  A    between atoms: _619  and  _622
REMARK  244  A    between atoms: _622  and  _623
REMARK  245  A    between atoms: _625  and  _627
REMARK  246  A    between atoms: _627  and  _628
REMARK  247  A    between atoms: _627  and  _630
REMARK  248  A    between atoms: _630  and  _631
REMARK  249  A    between atoms: _636  and  _638
REMARK  250  A    between atoms: _638  and  _639
REMARK  251  A    between atoms: _638  and  _641
REMARK  252  A    between atoms: _641  and  _642
REMARK  253  A    between atoms: _647  and  _649
REMARK  254  A    between atoms: _649  and  _650
REMARK  255  A    between atoms: _649  and  _652
REMARK  256  A    between atoms: _652  and  _653
REMARK  257  A    between atoms: _656  and  _658
REMARK  258  A    between atoms: _658  and  _659
REMARK  259  A    between atoms: _662  and  _664
REMARK  260  A    between atoms: _664  and  _665
REMARK  261  A    between atoms: _664  and  _667
REMARK  262  A    between atoms: _667  and  _668
REMARK  263  A    between atoms: _673  and  _674
REMARK  264  A    between atoms: _676  and  _678
REMARK  265  A    between atoms: _678  and  _679
REMARK  266  A    between atoms: _678  and  _681
REMARK  267  A    between atoms: _681  and  _682
REMARK  268  A    between atoms: _687  and  _688
REMARK  269  A    between atoms: _690  and  _692
REMARK  270  A    between atoms: _692  and  _693
REMARK  271  A    between atoms: _692  and  _695
REMARK  272  A    between atoms: _698  and  _700
REMARK  273  A    between atoms: _700  and  _701
REMARK  274  A    between atoms: _700  and  _703
REMARK  275  A    between atoms: _703  and  _704
REMARK  276  A    between atoms: _709  and  _711
REMARK  277  A    between atoms: _711  and  _712
REMARK  278  A    between atoms: _715  and  _717
REMARK  279  A    between atoms: _717  and  _718
REMARK  280  A    between atoms: _717  and  _720
REMARK  281  A    between atoms: _720  and  _721
REMARK  282  A    between atoms: _721  and  _722
REMARK  283  A    between atoms: _722  and  _723
REMARK  284  A    between atoms: _732  and  _734
REMARK  285  A    between atoms: _734  and  _735
REMARK  286  A    between atoms: _734  and  _737
REMARK  287  A    between atoms: _737  and  _738
REMARK  288  A    between atoms: _741  and  _743
REMARK  289  A    between atoms: _743  and  _744
REMARK  290  A    between atoms: _743  and  _746
REMARK  291  A    between atoms: _746  and  _747
REMARK  292  A    between atoms: _750  and  _752
REMARK  293  A    between atoms: _752  and  _753
REMARK  294  A    between atoms: _752  and  _755
REMARK  295  A    between atoms: _755  and  _756
REMARK  296  A    between atoms: _797  and  _800
REMARK                            x       y       z     vdW  Elec       q    Type
REMARK                         _______ _______ _______ _____ _____    ______ ____
ROOT
ATOM      1  C   LEU A   5       5.698  29.765  18.770  0.00  0.00    +0.241 C 
ATOM      2  O   LEU A   5       6.468  29.354  19.638  0.00  0.00    -0.273 OA
ATOM      3  N   ASP A   6       5.824  30.987  18.248  0.00  0.00    -0.297 N 
ATOM      4  H   ASP A   6       5.195  31.286  17.476  0.00  0.00    +0.150 HD
ENDROOT
BRANCH   3   5
ATOM      5  CA  ASP A   6       6.838  31.906  18.753  0.00  0.00    +0.160 C 
BRANCH   5   6
ATOM      6  C   ASP A   6       6.613  32.212  20.239  0.00  0.00    +0.241 C 
ATOM      7  O   ASP A   6       7.579  32.198  20.992  0.00  0.00    -0.273 OA
ATOM      8  N   THR A   7       5.373  32.438  20.640  0.00  0.00    -0.295 N 
ATOM      9  H   THR A   7       4.601  32.437  19.943  0.00  0.00    +0.150 HD
BRANCH   8  10
ATOM     10  CA  THR A   7       5.069  32.691  22.055  0.00  0.00    +0.176 C 
BRANCH  10  11
ATOM     11  C   THR A   7       5.518  31.559  22.969  0.00  0.00    +0.243 C 
ATOM     12  O   THR A   7       6.126  31.752  24.050  0.00  0.00    -0.273 OA
ATOM     13  N   ARG A   8       5.235  30.330  22.539  0.00  0.00    -0.297 N 
ATOM     14  H   ARG A   8       4.718  30.195  21.647  0.00  0.00    +0.150 HD
BRANCH  13  15
ATOM     15  CA  ARG A   8       5.659  29.160  23.335  0.00  0.00    +0.149 C 
BRANCH  15  16
ATOM     16  C   ARG A   8       7.167  29.084  23.420  0.00  0.00    +0.241 C 
ATOM     17  O   ARG A   8       7.666  28.797  24.512  0.00  0.00    -0.273 OA
ATOM     18  N   HIS A   9       7.908  29.392  22.344  0.00  0.00    -0.297 N 
ATOM     19  H   HIS A   9       7.452  29.617  21.437  0.00  0.00    +0.150 HD
BRANCH  18  20
ATOM     20  CA  HIS A   9       9.362  29.406  22.465  0.00  0.00    +0.155 C 
BRANCH  20  21
ATOM     21  C   HIS A   9       9.833  30.511  23.397  0.00  0.00    +0.241 C 
ATOM     22  O   HIS A   9      10.809  30.291  24.138  0.00  0.00    -0.273 OA
ATOM     23  N   GLN A  10       9.168  31.664  23.388  0.00  0.00    -0.297 N 
ATOM     24  H   GLN A  10       8.355  31.785  22.750  0.00  0.00    +0.150 HD
BRANCH  23  25
ATOM     25  CA  GLN A  10       9.570  32.765  24.268  0.00  0.00    +0.149 C 
BRANCH  25  26
ATOM     26  C   GLN A  10       9.354  32.486  25.739  0.00  0.00    +0.241 C 
ATOM     27  O   GLN A  10      10.011  33.070  26.622  0.00  0.00    -0.273 OA
ATOM     28  N   GLY A  11       8.399  31.611  26.033  0.00  0.00    -0.296 N 
ATOM     29  H   GLY A  11       7.916  31.114  25.258  0.00  0.00    +0.150 HD
BRANCH  28  30
ATOM     30  CA  GLY A  11       8.010  31.328  27.393  0.00  0.00    +0.163 C 
BRANCH  30  31
ATOM     31  C   GLY A  11       7.113  32.525  27.774  0.00  0.00    +0.229 C 
ATOM     32  O   GLY A  11       6.937  32.726  28.960  0.00  0.00    -0.286 OA
ENDBRANCH  30  31
ENDBRANCH  28  30
ENDBRANCH  25  26
BRANCH  25  33
ATOM     33  CB  GLN A  10       8.791  34.060  23.943  0.00  0.00    +0.039 C 
BRANCH  33  34
ATOM     34  CG  GLN A  10       9.100  34.641  22.574  0.00  0.00    +0.087 C 
BRANCH  34  35
ATOM     35  CD  GLN A  10       8.278  35.883  22.258  0.00  0.00    +0.219 C 
ATOM     36  NE2 GLN A  10       7.707  36.520  23.284  0.00  0.00    -0.329 N 
ATOM     37 HE21 GLN A  10       7.832  36.163  24.253  0.00  0.00    +0.145 HD
ATOM     38 HE22 GLN A  10       7.137  37.373  23.114  0.00  0.00    +0.145 HD
ATOM     39  OE1 GLN A  10       8.137  36.297  21.101  0.00  0.00    -0.275 OA
ENDBRANCH  34  35
ENDBRANCH  33  34
ENDBRANCH  25  33
ENDBRANCH  23  25
ENDBRANCH  20  21
BRANCH  20  40
ATOM     40  CB  HIS A   9      10.070  29.577  21.122  0.00  0.00    +0.076 C 
BRANCH  40  41
ATOM     41  CG  HIS A   9      10.224  28.297  20.360  0.00  0.00    +0.082 A 
ATOM     42  ND1 HIS A   9      11.074  27.292  20.780  0.00  0.00    -0.227 NA
ATOM     43  CE1 HIS A   9      10.988  26.274  19.941  0.00  0.00    +0.199 A 
ATOM     44  NE2 HIS A   9      10.157  26.600  18.963  0.00  0.00    -0.221 NA
ATOM     45  CD2 HIS A   9       9.656  27.855  19.221  0.00  0.00    +0.115 A 
ENDBRANCH  40  41
ENDBRANCH  20  40
ENDBRANCH  18  20
ENDBRANCH  15  16
BRANCH  15  46
ATOM     46  CB  ARG A   8       5.012  27.901  22.777  0.00  0.00    +0.033 C 
BRANCH  46  47
ATOM     47  CG  ARG A   8       3.496  27.956  23.031  0.00  0.00    +0.045 C 
BRANCH  47  48
ATOM     48  CD  ARG A   8       2.745  26.927  22.222  0.00  0.00    +0.174 C 
BRANCH  48  49
ATOM     49  NE  ARG A   8       3.197  25.574  22.578  0.00  0.00    -0.265 N 
ATOM     50  HE  ARG A   8       3.791  25.473  23.425  0.00  0.00    +0.259 HD
ATOM     51  CZ  ARG A   8       2.904  24.476  21.901  0.00  0.00    +0.342 C 
ATOM     52  NH2 ARG A   8       3.407  23.310  22.332  0.00  0.00    -0.292 N 
ATOM     53 HH21 ARG A   8       4.011  23.285  23.179  0.00  0.00    +0.255 HD
ATOM     54 HH22 ARG A   8       3.194  22.430  21.820  0.00  0.00    +0.255 HD
ATOM     55  NH1 ARG A   8       2.163  24.532  20.800  0.00  0.00    -0.292 N 
ATOM     56 HH11 ARG A   8       1.805  25.447  20.460  0.00  0.00    +0.255 HD
ATOM     57 HH12 ARG A   8       1.941  23.660  20.278  0.00  0.00    +0.255 HD
ENDBRANCH  48  49
ENDBRANCH  47  48
ENDBRANCH  46  47
ENDBRANCH  15  46
ENDBRANCH  13  15
ENDBRANCH  10  11
BRANCH  10  58
ATOM     58  CB  THR A   7       3.561  32.946  22.183  0.00  0.00    +0.137 C 
ATOM     59  CG2 THR A   7       3.139  33.048  23.638  0.00  0.00    +0.034 C 
BRANCH  58  60
ATOM     60  OG1 THR A   7       3.227  34.148  21.467  0.00  0.00    -0.382 OA
ATOM     61  HG1 THR A   7       3.468  34.040  20.513  0.00  0.00    +0.210 HD
ENDBRANCH  58  60
ENDBRANCH  10  58
ENDBRANCH   8  10
ENDBRANCH   5   6
BRANCH   5  62
ATOM     62  CB  ASP A   6       6.875  33.195  17.942  0.00  0.00    +0.143 C 
BRANCH  62  63
ATOM     63  CG  ASP A   6       7.978  34.118  18.431  0.00  0.00    +0.367 C 
ATOM     64  OD2 ASP A   6       7.588  35.219  18.871  0.00  0.00    -0.246 OA
ATOM     65  OD1 ASP A   6       9.162  33.720  18.389  0.00  0.00    -0.246 OA
ENDBRANCH  62  63
ENDBRANCH   5  62
ENDBRANCH   3   5
BRANCH   1  66
ATOM     66  CA  LEU A   5       4.574  28.882  18.223  0.00  0.00    +0.149 C 
BRANCH  66  69
ATOM     67  C   PHE A   4       2.707  30.211  19.077  0.00  0.00    +0.241 C 
ATOM     68  O   PHE A   4       3.072  30.006  20.249  0.00  0.00    -0.273 OA
ATOM     69  N   LEU A   5       3.346  29.645  18.048  0.00  0.00    -0.297 N 
ATOM     70  H   LEU A   5       2.953  29.753  17.091  0.00  0.00    +0.150 HD
BRANCH  67  71
ATOM     71  CA  PHE A   4       1.477  31.044  18.785  0.00  0.00    +0.153 C 
BRANCH  71  74
ATOM     72  C   THR A   3       2.671  32.894  17.707  0.00  0.00    +0.243 C 
ATOM     73  O   THR A   3       3.488  33.011  18.601  0.00  0.00    -0.273 OA
ATOM     74  N   PHE A   4       1.690  32.005  17.709  0.00  0.00    -0.297 N 
ATOM     75  H   PHE A   4       1.036  31.991  16.900  0.00  0.00    +0.150 HD
BRANCH  72  76
ATOM     76  CA  THR A   3       2.749  33.784  16.461  0.00  0.00    +0.176 C 
BRANCH  76  79
ATOM     77  C   LYS A   2       3.421  32.124  14.818  0.00  0.00    +0.241 C 
ATOM     78  O   LYS A   2       4.446  31.852  15.473  0.00  0.00    -0.273 OA
ATOM     79  N   THR A   3       2.531  33.017  15.242  0.00  0.00    -0.295 N 
ATOM     80  H   THR A   3       1.662  33.171  14.692  0.00  0.00    +0.150 HD
BRANCH  77  81
ATOM     81  CA  LYS A   2       3.102  31.385  13.531  0.00  0.00    +0.149 C 
BRANCH  81  84
ATOM     82  C   TRP A   1       1.160  30.193  14.408  0.00  0.00    +0.239 C 
ATOM     83  O   TRP A   1       1.833  29.791  15.365  0.00  0.00    -0.274 OA
ATOM     84  N   LYS A   2       1.704  30.964  13.450  0.00  0.00    -0.297 N 
ATOM     85  H   LYS A   2       1.123  31.265  12.641  0.00  0.00    +0.150 HD
BRANCH  82  86
ATOM     86  CA  TRP A   1      -0.279  29.770  14.265  0.00  0.00    +0.149 C 
BRANCH  86  87
ATOM     87  N   TRP A   1      -1.273  30.840  14.162  0.00  0.00    -0.238 NA
ATOM     88  H   TRP A   1      -2.013  30.767  13.435  0.00  0.00    +0.142 HD
ENDBRANCH  86  87
BRANCH  86  89
ATOM     89  CB  TRP A   1      -0.425  28.875  13.037  0.00  0.00    +0.054 C 
BRANCH  89  90
ATOM     90  CG  TRP A   1       0.492  27.693  12.912  0.00  0.00    -0.002 A 
ATOM     91  CD2 TRP A   1       0.530  26.513  13.711  0.00  0.00    +0.013 A 
ATOM     92  CE3 TRP A   1      -0.168  26.094  14.854  0.00  0.00    +0.001 A 
ATOM     93  CZ3 TRP A   1       0.150  24.858  15.425  0.00  0.00    +0.000 A 
ATOM     94  CH2 TRP A   1       1.133  24.032  14.829  0.00  0.00    +0.001 A 
ATOM     95  CZ2 TRP A   1       1.833  24.436  13.732  0.00  0.00    +0.017 A 
ATOM     96  CE2 TRP A   1       1.526  25.674  13.176  0.00  0.00    +0.056 A 
ATOM     97  NE1 TRP A   1       2.072  26.312  12.082  0.00  0.00    -0.352 N 
ATOM     98  HE1 TRP A   1       2.832  25.942  11.476  0.00  0.00    +0.166 HD
ATOM     99  CD1 TRP A   1       1.432  27.533  11.930  0.00  0.00    +0.068 A 
ENDBRANCH  89  90
ENDBRANCH  86  89
ENDBRANCH  82  86
ENDBRANCH  81  84
BRANCH  81 100
ATOM    100  CB  LYS A   2       3.469  32.269  12.315  0.00  0.00    +0.029 C 
BRANCH 100 101
ATOM    101  CG  LYS A   2       4.967  32.554  12.228  0.00  0.00    +0.000 C 
BRANCH 101 102
ATOM    102  CD  LYS A   2       5.253  33.366  10.956  0.00  0.00    -0.024 C 
BRANCH 102 103
ATOM    103  CE  LYS A   2       6.754  33.476  10.709  0.00  0.00    -0.086 C 
BRANCH 103 104
ATOM    104  NZ  LYS A   2       7.004  33.966   9.312  0.00  0.00    +0.380 N 
ATOM    105  HZ1 LYS A   2       6.565  34.901   9.190  0.00  0.00    -0.089 HD
ATOM    106  HZ2 LYS A   2       8.029  34.039   9.150  0.00  0.00    -0.089 HD
ATOM    107  HZ3 LYS A   2       6.591  33.296   8.632  0.00  0.00    -0.089 HD
ENDBRANCH 103 104
ENDBRANCH 102 103
ENDBRANCH 101 102
ENDBRANCH 100 101
ENDBRANCH  81 100
ENDBRANCH  77  81
ENDBRANCH  76  79
BRANCH  76 108
ATOM    108  CB  THR A   3       1.712  34.907  16.592  0.00  0.00    +0.137 C 
ATOM    109  CG2 THR A   3       1.953  35.745  17.832  0.00  0.00    +0.034 C 
BRANCH 108 110
ATOM    110  OG1 THR A   3       1.899  35.720  15.402  0.00  0.00    -0.382 OA
ATOM    111  HG1 THR A   3       1.258  36.474  15.415  0.00  0.00    +0.210 HD
ENDBRANCH 108 110
ENDBRANCH  76 108
ENDBRANCH  72  76
ENDBRANCH  71  74
BRANCH  71 112
ATOM    112  CB  PHE A   4       0.273  30.188  18.355  0.00  0.00    +0.055 C 
BRANCH 112 113
ATOM    113  CG  PHE A   4       0.003  28.957  19.173  0.00  0.00    -0.020 A 
ATOM    114  CD2 PHE A   4      -0.477  29.060  20.473  0.00  0.00    -0.004 A 
ATOM    115  CE2 PHE A   4      -0.766  27.910  21.197  0.00  0.00    -0.000 A 
ATOM    116  CZ  PHE A   4      -0.608  26.655  20.630  0.00  0.00    -0.000 A 
ATOM    117  CE1 PHE A   4      -0.129  26.544  19.329  0.00  0.00    -0.000 A 
ATOM    118  CD1 PHE A   4       0.139  27.701  18.611  0.00  0.00    -0.004 A 
ENDBRANCH 112 113
ENDBRANCH  71 112
ENDBRANCH  67  71
ENDBRANCH  66  69
BRANCH  66 119
ATOM    119  CB  LEU A   5       4.999  28.255  16.889  0.00  0.00    +0.029 C 
BRANCH 119 120
ATOM    120  CG  LEU A   5       3.912  27.361  16.240  0.00  0.00    +0.002 C 
ATOM    121  CD2 LEU A   5       3.428  26.259  17.205  0.00  0.00    +0.000 C 
ATOM    122  CD1 LEU A   5       4.512  26.671  15.027  0.00  0.00    +0.000 C 
ENDBRANCH 119 120
ENDBRANCH  66 119
ENDBRANCH   1  66
TORSDOF 48
REMARK  Name = ../refined-set-2016/1b1h/1b1h_pocket.pdb
REMARK  296 active torsions:
REMARK  status: ('A' for Active; 'I' for Inactive)
REMARK    1  A    between atoms: _1  and  _3
REMARK    2  A    between atoms: _3  and  _4
REMARK    3  A    between atoms: _3  and  _6
REMARK    4  A    between atoms: _6  and  _7
REMARK    5  A    between atoms: _12  and  _14
REMARK    6  A    between atoms: _14  and  _15
REMARK    7  A    between atoms: _17  and  _19
REMARK    8  A    between atoms: _19  and  _20
REMARK    9  A    between atoms: _19  and  _22
REMARK   10  A    between atoms: _22  and  _23
REMARK   11  A    between atoms: _25  and  _27
REMARK   12  A    between atoms: _27  and  _28
REMARK   13  A    between atoms: _27  and  _30
REMARK   14  A    between atoms: _30  and  _31
REMARK   15  A    between atoms: _31  and  _32
REMARK   16  A    between atoms: _37  and  _39
REMARK   17  A    between atoms: _39  and  _40
REMARK   18  A    between atoms: _39  and  _42
REMARK   19  A    between atoms: _42  and  _43
REMARK   20  A    between atoms: _46  and  _48
REMARK   21  A    between atoms: _48  and  _49
REMARK   22  A    between atoms: _48  and  _51
REMARK   23  A    between atoms: _51  and  _52
REMARK   24  A    between atoms: _52  and  _53
REMARK   25  A    between atoms: _56  and  _58
REMARK   26  A    between atoms: _58  and  _59
REMARK   27  A    between atoms: _61  and  _63
REMARK   28  A    between atoms: _63  and  _64
REMARK   29  A    between atoms: _63  and  _66
REMARK   30  A    between atoms: _70  and  _71
REMARK   31  A    between atoms: _76  and  _78
REMARK   32  A    between atoms: _78  and  _79
REMARK   33  A    between atoms: _78  and  _81
REMARK   34  A    between atoms: _81  and  _82
REMARK   35  A    between atoms: _82  and  _83
REMARK   36  A    between atoms: _86  and  _88
REMARK   37  A    between atoms: _88  and  _89
REMARK   38  A    between atoms: _88  and  _91
REMARK   39  A    between atoms: _91  and  _92
REMARK   40  A    between atoms: _94  and  _96
REMARK   41  A    between atoms: _96  and  _97
REMARK   42  A    between atoms: _96  and  _99
REMARK   43  A    between atoms: _99  and  _100
REMARK   44  A    between atoms: _105  and  _107
REMARK   45  A    between atoms: _107  and  _108
REMARK   46  A    between atoms: _107  and  _110
REMARK   47  A    between atoms: _110  and  _111
REMARK   48  A    between atoms: _111  and  _112
REMARK   49  A    between atoms: _112  and  _113
REMARK   50  A    between atoms: _123  and  _124
REMARK   51  A    between atoms: _129  and  _131
REMARK   52  A    between atoms: _131  and  _132
REMARK   53  A    between atoms: _131  and  _134
REMARK   54  A    between atoms: _134  and  _135
REMARK   55  A    between atoms: _140  and  _141
REMARK   56  A    between atoms: _143  and  _145
REMARK   57  A    between atoms: _145  and  _146
REMARK   58  A    between atoms: _145  and  _148
REMARK   59  A    between atoms: _148  and  _149
REMARK   60  A    between atoms: _154  and  _155
REMARK   61  A    between atoms: _157  and  _159
REMARK   62  A    between atoms: _159  and  _160
REMARK   63  A    between atoms: _159  and  _162
REMARK   64  A    between atoms: _165  and  _167
REMARK   65  A    between atoms: _167  and  _168
REMARK   66  A    between atoms: _167  and  _170
REMARK   67  A    between atoms: _170  and  _171
REMARK   68  A    between atoms: _177  and  _178
REMARK   69  A    between atoms: _183  and  _185
REMARK   70  A    between atoms: _185  and  _186
REMARK   71  A    between atoms: _185  and  _188
REMARK   72  A    between atoms: _188  and  _189
REMARK   73  A    between atoms: _191  and  _193
REMARK   74  A    between atoms: _193  and  _194
REMARK   75  A    between atoms: _193  and  _196
REMARK   76  A    between atoms: _196  and  _197
REMARK   77  A    between atoms: _197  and  _198
REMARK   78  A    between atoms: _201  and  _203
REMARK   79  A    between atoms: _203  and  _204
REMARK   80  A    between atoms: _203  and  _206
REMARK   81  A    between atoms: _206  and  _207
REMARK   82  A    between atoms: _212  and  _213
REMARK   83  A    between atoms: _215  and  _217
REMARK   84  A    between atoms: _217  and  _218
REMARK   85  A    between atoms: _217  and  _220
REMARK   86  A    between atoms: _220  and  _221
REMARK   87  A    between atoms: _226  and  _228
REMARK   88  A    between atoms: _228  and  _229
REMARK   89  A    between atoms: _228  and  _231
REMARK   90  A    between atoms: _231  and  _232
REMARK   91  A    between atoms: _237  and  _239
REMARK   92  A    between atoms: _239  and  _240
REMARK   93  A    between atoms: _239  and  _242
REMARK   94  A    between atoms: _242  and  _243
REMARK   95  A    between atoms: _243  and  _244
REMARK   96  A    between atoms: _246  and  _248
REMARK   97  A    between atoms: _248  and  _249
REMARK   98  A    between atoms: _248  and  _251
REMARK   99  A    between atoms: _251  and  _252
REMARK  100  A    between atoms: _257  and  _258
REMARK  101  A    between atoms: _260  and  _262
REMARK  102  A    between atoms: _262  and  _263
REMARK  103  A    between atoms: _262  and  _265
REMARK  104  A    between atoms: _265  and  _266
REMARK  105  A    between atoms: _269  and  _271
REMARK  106  A    between atoms: _271  and  _272
REMARK  107  A    between atoms: _271  and  _274
REMARK  108  A    between atoms: _274  and  _275
REMARK  109  A    between atoms: _275  and  _558
REMARK  110  A    between atoms: _276  and  _278
REMARK  111  A    between atoms: _278  and  _279
REMARK  112  A    between atoms: _278  and  _281
REMARK  113  A    between atoms: _281  and  _282
REMARK  114  A    between atoms: _285  and  _287
REMARK  115  A    between atoms: _287  and  _288
REMARK  116  A    between atoms: _287  and  _290
REMARK  117  A    between atoms: _290  and  _291
REMARK  118  A    between atoms: _296  and  _297
REMARK  119  A    between atoms: _299  and  _301
REMARK  120  A    between atoms: _301  and  _302
REMARK  121  A    between atoms: _301  and  _304
REMARK  122  A    between atoms: _304  and  _305
REMARK  123  A    between atoms: _310  and  _311
REMARK  124  A    between atoms: _313  and  _315
REMARK  125  A    between atoms: _315  and  _316
REMARK  126  A    between atoms: _315  and  _318
REMARK  127  A    between atoms: _318  and  _319
REMARK  128  A    between atoms: _319  and  _320
REMARK  129  A    between atoms: _323  and  _325
REMARK  130  A    between atoms: _325  and  _326
REMARK  131  A    between atoms: _325  and  _328
REMARK  132  A    between atoms: _328  and  _329
REMARK  133  A    between atoms: _334  and  _335
REMARK  134  A    between atoms: _337  and  _339
REMARK  135  A    between atoms: _339  and  _340
REMARK  136  A    between atoms: _339  and  _342
REMARK  137  A    between atoms: _342  and  _343
REMARK  138  A    between atoms: _348  and  _350
REMARK  139  A    between atoms: _350  and  _351
REMARK  140  A    between atoms: _350  and  _353
REMARK  141  A    between atoms: _353  and  _354
REMARK  142  A    between atoms: _357  and  _359
REMARK  143  A    between atoms: _359  and  _360
REMARK  144  A    between atoms: _359  and  _362
REMARK  145  A    between atoms: _362  and  _363
REMARK  146  A    between atoms: _368  and  _370
REMARK  147  A    between atoms: _370  and  _371
REMARK  148  A    between atoms: _370  and  _373
REMARK  149  A    between atoms: _373  and  _374
REMARK  150  A    between atoms: _384  and  _386
REMARK  151  A    between atoms: _386  and  _387
REMARK  152  A    between atoms: _386  and  _389
REMARK  153  A    between atoms: _389  and  _390
REMARK  154  A    between atoms: _390  and  _391
REMARK  155  A    between atoms: _391  and  _392
REMARK  156  A    between atoms: _392  and  _393
REMARK  157  A    between atoms: _397  and  _399
REMARK  158  A    between atoms: _399  and  _400
REMARK  159  A    between atoms: _399  and  _402
REMARK  160  A    between atoms: _402  and  _403
REMARK  161  A    between atoms: _406  and  _408
REMARK  162  A    between atoms: _408  and  _409
REMARK  163  A    between atoms: _408  and  _411
REMARK  164  A    between atoms: _411  and  _412
REMARK  165  A    between atoms: _418  and  _420
REMARK  166  A    between atoms: _420  and  _421
REMARK  167  A    between atoms: _420  and  _423
REMARK  168  A    between atoms: _423  and  _424
REMARK  169  A    between atoms: _427  and  _429
REMARK  170  A    between atoms: _429  and  _430
REMARK  171  A    between atoms: _429  and  _432
REMARK  172  A    between atoms: _432  and  _433
REMARK  173  A    between atoms: _436  and  _438
REMARK  174  A    between atoms: _438  and  _439
REMARK  175  A    between atoms: _438  and  _441
REMARK  176  A    between atoms: _441  and  _442
REMARK  177  A    between atoms: _445  and  _447
REMARK  178  A    between atoms: _447  and  _448
REMARK  179  A    between atoms: _447  and  _450
REMARK  180  A    between atoms: _450  and  _451
REMARK  181  A    between atoms: _451  and  _452
REMARK  182  A    between atoms: _452  and  _453
REMARK  183  A    between atoms: _462  and  _464
REMARK  184  A    between atoms: _464  and  _465
REMARK  185  A    between atoms: _464  and  _467
REMARK  186  A    between atoms: _467  and  _468
REMARK  187  A    between atoms: _473  and  _475
REMARK  188  A    between atoms: _475  and  _476
REMARK  189  A    between atoms: _475  and  _478
REMARK  190  A    between atoms: _478  and  _479
REMARK  191  A    between atoms: _479  and  _480
REMARK  192  A    between atoms: _485  and  _487
REMARK  193  A    between atoms: _487  and  _488
REMARK  194  A    between atoms: _490  and  _492
REMARK  195  A    between atoms: _492  and  _493
REMARK  196  A    between atoms: _492  and  _495
REMARK  197  A    between atoms: _495  and  _496
REMARK  198  A    between atoms: _502  and  _504
REMARK  199  A    between atoms: _504  and  _505
REMARK  200  A    between atoms: _508  and  _510
REMARK  201  A    between atoms: _510  and  _511
REMARK  202  A    between atoms: _510  and  _513
REMARK  203  A    between atoms: _513  and  _514
REMARK  204  A    between atoms: _514  and  _515
REMARK  205  A    between atoms: _515  and  _516
REMARK  206  A    between atoms: _525  and  _527
REMARK  207  A    between atoms: _527  and  _528
REMARK  208  A    between atoms: _531  and  _533
REMARK  209  A    between atoms: _533  and  _534
REMARK  210  A    between atoms: _536  and  _538
REMARK  211  A    between atoms: _538  and  _539
REMARK  212  A    between atoms: _538  and  _541
REMARK  213  A    between atoms: _541  and  _542
REMARK  214  A    between atoms: _552  and  _554
REMARK  215  A    between atoms: _554  and  _555
REMARK  216  A    between atoms: _554  and  _557
REMARK  217  A    between atoms: _557  and  _558
REMARK  218  A    between atoms: _559  and  _561
REMARK  219  A    between atoms: _561  and  _562
REMARK  220  A    between atoms: _565  and  _567
REMARK  221  A    between atoms: _567  and  _568
REMARK  222  A    between atoms: _567  and  _570
REMARK  223  A    between atoms: _570  and  _571
REMARK  224  A    between atoms: _574  and  _576
REMARK  225  A    between atoms: _576  and  _577
REMARK  226  A    between atoms: _576  and  _579
REMARK  227  A    between atoms: _579  and  _580
REMARK  228  A    between atoms: _585  and  _586
REMARK  229  A    between atoms: _588  and  _590
REMARK  230  A    between atoms: _590  and  _591
REMARK  231  A    between atoms: _590  and  _593
REMARK  232  A    between atoms: _593  and  _594
REMARK  233  A    between atoms: _596  and  _598
REMARK  234  A    between atoms: _598  and  _599
REMARK  235  A    between atoms: _598  and  _601
REMARK  236  A    between atoms: _601  and  _602
REMARK  237  A    between atoms: _608  and  _610
REMARK  238  A    between atoms: _610  and  _611
REMARK  239  A    between atoms: _610  and  _613
REMARK  240  A    between atoms: _613  and  _614
REMARK  241  A    between atoms: _617  and  _619
REMARK  242  A    between atoms: _619  and  _620
REMARK  243  A    between atoms: _619  and  _622
REMARK  244  A    between atoms: _622  and  _623
REMARK  245  A    between atoms: _625  and  _627
REMARK  246  A    between atoms: _627  and  _628
REMARK  247  A    between atoms: _627  and  _630
REMARK  248  A    between atoms: _630  and  _631
REMARK  249  A    between atoms: _636  and  _638
REMARK  250  A    between atoms: _638  and  _639
REMARK  251  A    between atoms: _638  and  _641
REMARK  252  A    between atoms: _641  and  _642
REMARK  253  A    between atoms: _647  and  _649
REMARK  254  A    between atoms: _649  and  _650
REMARK  255  A    between atoms: _649  and  _652
REMARK  256  A    between atoms: _652  and  _653
REMARK  257  A    between atoms: _656  and  _658
REMARK  258  A    between atoms: _658  and  _659
REMARK  259  A    between atoms: _662  and  _664
REMARK  260  A    between atoms: _664  and  _665
REMARK  261  A    between atoms: _664  and  _667
REMARK  262  A    between atoms: _667  and  _668
REMARK  263  A    between atoms: _673  and  _674
REMARK  264  A    between atoms: _676  and  _678
REMARK  265  A    between atoms: _678  and  _679
REMARK  266  A    between atoms: _678  and  _681
REMARK  267  A    between atoms: _681  and  _682
REMARK  268  A    between atoms: _687  and  _688
REMARK  269  A    between atoms: _690  and  _692
REMARK  270  A    between atoms: _692  and  _693
REMARK  271  A    between atoms: _692  and  _695
REMARK  272  A    between atoms: _698  and  _700
REMARK  273  A    between atoms: _700  and  _701
REMARK  274  A    between atoms: _700  and  _703
REMARK  275  A    between atoms: _703  and  _704
REMARK  276  A    between atoms: _709  and  _711
REMARK  277  A    between atoms: _711  and  _712
REMARK  278  A    between atoms: _715  and  _717
REMARK  279  A    between atoms: _717  and  _718
REMARK  280  A    between atoms: _717  and  _720
REMARK  281  A    between atoms: _720  and  _721
REMARK  282  A    between atoms: _721  and  _722
REMARK  283  A    between atoms: _722  and  _723
REMARK  284  A    between atoms: _732  and  _734
REMARK  285  A    between atoms: _734  and  _735
REMARK  286  A    between atoms: _734  and  _737
REMARK  287  A    between atoms: _737  and  _738
REMARK  288  A    between atoms: _741  and  _743
REMARK  289  A    between atoms: _743  and  _744
REMARK  290  A    between atoms: _743  and  _746
REMARK  291  A    between atoms: _746  and  _747
REMARK  292  A    between atoms: _750  and  _752
REMARK  293  A    between atoms: _752  and  _753
REMARK  294  A    between atoms: _752  and  _755
REMARK  295  A    between atoms: _755  and  _756
REMARK  296  A    between atoms: _797  and  _800
REMARK                            x       y       z     vdW  Elec       q    Type
REMARK                         _______ _______ _______ _____ _____    ______ ____
ROOT
ATOM      1  CB  PHE A   1       2.514  31.147  27.482  0.00  0.00    +0.051 C 
ENDROOT
BRANCH   1   2
ATOM      2  CG  PHE A   1       3.294  29.856  27.423  0.00  0.00    -0.020 A 
ATOM      3  CD2 PHE A   1       2.653  28.679  27.782  0.00  0.00    -0.004 A 
ATOM      4  CE2 PHE A   1       3.310  27.456  27.718  0.00  0.00    -0.000 A 
ATOM      5  CZ  PHE A   1       4.620  27.400  27.279  0.00  0.00    -0.000 A 
ATOM      6  CE1 PHE A   1       5.252  28.583  26.890  0.00  0.00    -0.000 A 
ATOM      7  CD1 PHE A   1       4.587  29.791  26.952  0.00  0.00    -0.004 A 
ENDBRANCH   1   2
BRANCH   1   8
ATOM      8  CA  PHE A   1       2.842  32.073  28.676  0.00  0.00    +0.137 C 
BRANCH   8   9
ATOM      9  N   PHE A   1       4.082  32.738  28.374  0.00  0.00    -0.239 NA
ATOM     10  H   PHE A   1       4.950  32.417  28.848  0.00  0.00    +0.142 HD
ENDBRANCH   8   9
BRANCH   8  11
ATOM     11  C   PHE A   1       2.768  31.296  29.974  0.00  0.00    +0.224 C 
ATOM     12  O   PHE A   1       3.640  31.051  30.833  0.00  0.00    -0.287 OA
ENDBRANCH   8  11
ENDBRANCH   1   8
TORSDOF 4
REMARK  Name = ../refined-set-2016/1b1h/1b1h_pocket.pdb
REMARK  296 active torsions:
REMARK  status: ('A' for Active; 'I' for Inactive)
REMARK    1  A    between atoms: _1  and  _3
REMARK    2  A    between atoms: _3  and  _4
REMARK    3  A    between atoms: _3  and  _6
REMARK    4  A    between atoms: _6  and  _7
REMARK    5  A    between atoms: _12  and  _14
REMARK    6  A    between atoms: _14  and  _15
REMARK    7  A    between atoms: _17  and  _19
REMARK    8  A    between atoms: _19  and  _20
REMARK    9  A    between atoms: _19  and  _22
REMARK   10  A    between atoms: _22  and  _23
REMARK   11  A    between atoms: _25  and  _27
REMARK   12  A    between atoms: _27  and  _28
REMARK   13  A    between atoms: _27  and  _30
REMARK   14  A    between atoms: _30  and  _31
REMARK   15  A    between atoms: _31  and  _32
REMARK   16  A    between atoms: _37  and  _39
REMARK   17  A    between atoms: _39  and  _40
REMARK   18  A    between atoms: _39  and  _42
REMARK   19  A    between atoms: _42  and  _43
REMARK   20  A    between atoms: _46  and  _48
REMARK   21  A    between atoms: _48  and  _49
REMARK   22  A    between atoms: _48  and  _51
REMARK   23  A    between atoms: _51  and  _52
REMARK   24  A    between atoms: _52  and  _53
REMARK   25  A    between atoms: _56  and  _58
REMARK   26  A    between atoms: _58  and  _59
REMARK   27  A    between atoms: _61  and  _63
REMARK   28  A    between atoms: _63  and  _64
REMARK   29  A    between atoms: _63  and  _66
REMARK   30  A    between atoms: _70  and  _71
REMARK   31  A    between atoms: _76  and  _78
REMARK   32  A    between atoms: _78  and  _79
REMARK   33  A    between atoms: _78  and  _81
REMARK   34  A    between atoms: _81  and  _82
REMARK   35  A    between atoms: _82  and  _83
REMARK   36  A    between atoms: _86  and  _88
REMARK   37  A    between atoms: _88  and  _89
REMARK   38  A    between atoms: _88  and  _91
REMARK   39  A    between atoms: _91  and  _92
REMARK   40  A    between atoms: _94  and  _96
REMARK   41  A    between atoms: _96  and  _97
REMARK   42  A    between atoms: _96  and  _99
REMARK   43  A    between atoms: _99  and  _100
REMARK   44  A    between atoms: _105  and  _107
REMARK   45  A    between atoms: _107  and  _108
REMARK   46  A    between atoms: _107  and  _110
REMARK   47  A    between atoms: _110  and  _111
REMARK   48  A    between atoms: _111  and  _112
REMARK   49  A    between atoms: _112  and  _113
REMARK   50  A    between atoms: _123  and  _124
REMARK   51  A    between atoms: _129  and  _131
REMARK   52  A    between atoms: _131  and  _132
REMARK   53  A    between atoms: _131  and  _134
REMARK   54  A    between atoms: _134  and  _135
REMARK   55  A    between atoms: _140  and  _141
REMARK   56  A    between atoms: _143  and  _145
REMARK   57  A    between atoms: _145  and  _146
REMARK   58  A    between atoms: _145  and  _148
REMARK   59  A    between atoms: _148  and  _149
REMARK   60  A    between atoms: _154  and  _155
REMARK   61  A    between atoms: _157  and  _159
REMARK   62  A    between atoms: _159  and  _160
REMARK   63  A    between atoms: _159  and  _162
REMARK   64  A    between atoms: _165  and  _167
REMARK   65  A    between atoms: _167  and  _168
REMARK   66  A    between atoms: _167  and  _170
REMARK   67  A    between atoms: _170  and  _171
REMARK   68  A    between atoms: _177  and  _178
REMARK   69  A    between atoms: _183  and  _185
REMARK   70  A    between atoms: _185  and  _186
REMARK   71  A    between atoms: _185  and  _188
REMARK   72  A    between atoms: _188  and  _189
REMARK   73  A    between atoms: _191  and  _193
REMARK   74  A    between atoms: _193  and  _194
REMARK   75  A    between atoms: _193  and  _196
REMARK   76  A    between atoms: _196  and  _197
REMARK   77  A    between atoms: _197  and  _198
REMARK   78  A    between atoms: _201  and  _203
REMARK   79  A    between atoms: _203  and  _204
REMARK   80  A    between atoms: _203  and  _206
REMARK   81  A    between atoms: _206  and  _207
REMARK   82  A    between atoms: _212  and  _213
REMARK   83  A    between atoms: _215  and  _217
REMARK   84  A    between atoms: _217  and  _218
REMARK   85  A    between atoms: _217  and  _220
REMARK   86  A    between atoms: _220  and  _221
REMARK   87  A    between atoms: _226  and  _228
REMARK   88  A    between atoms: _228  and  _229
REMARK   89  A    between atoms: _228  and  _231
REMARK   90  A    between atoms: _231  and  _232
REMARK   91  A    between atoms: _237  and  _239
REMARK   92  A    between atoms: _239  and  _240
REMARK   93  A    between atoms: _239  and  _242
REMARK   94  A    between atoms: _242  and  _243
REMARK   95  A    between atoms: _243  and  _244
REMARK   96  A    between atoms: _246  and  _248
REMARK   97  A    between atoms: _248  and  _249
REMARK   98  A    between atoms: _248  and  _251
REMARK   99  A    between atoms: _251  and  _252
REMARK  100  A    between atoms: _257  and  _258
REMARK  101  A    between atoms: _260  and  _262
REMARK  102  A    between atoms: _262  and  _263
REMARK  103  A    between atoms: _262  and  _265
REMARK  104  A    between atoms: _265  and  _266
REMARK  105  A    between atoms: _269  and  _271
REMARK  106  A    between atoms: _271  and  _272
REMARK  107  A    between atoms: _271  and  _274
REMARK  108  A    between atoms: _274  and  _275
REMARK  109  A    between atoms: _275  and  _558
REMARK  110  A    between atoms: _276  and  _278
REMARK  111  A    between atoms: _278  and  _279
REMARK  112  A    between atoms: _278  and  _281
REMARK  113  A    between atoms: _281  and  _282
REMARK  114  A    between atoms: _285  and  _287
REMARK  115  A    between atoms: _287  and  _288
REMARK  116  A    between atoms: _287  and  _290
REMARK  117  A    between atoms: _290  and  _291
REMARK  118  A    between atoms: _296  and  _297
REMARK  119  A    between atoms: _299  and  _301
REMARK  120  A    between atoms: _301  and  _302
REMARK  121  A    between atoms: _301  and  _304
REMARK  122  A    between atoms: _304  and  _305
REMARK  123  A    between atoms: _310  and  _311
REMARK  124  A    between atoms: _313  and  _315
REMARK  125  A    between atoms: _315  and  _316
REMARK  126  A    between atoms: _315  and  _318
REMARK  127  A    between atoms: _318  and  _319
REMARK  128  A    between atoms: _319  and  _320
REMARK  129  A    between atoms: _323  and  _325
REMARK  130  A    between atoms: _325  and  _326
REMARK  131  A    between atoms: _325  and  _328
REMARK  132  A    between atoms: _328  and  _329
REMARK  133  A    between atoms: _334  and  _335
REMARK  134  A    between atoms: _337  and  _339
REMARK  135  A    between atoms: _339  and  _340
REMARK  136  A    between atoms: _339  and  _342
REMARK  137  A    between atoms: _342  and  _343
REMARK  138  A    between atoms: _348  and  _350
REMARK  139  A    between atoms: _350  and  _351
REMARK  140  A    between atoms: _350  and  _353
REMARK  141  A    between atoms: _353  and  _354
REMARK  142  A    between atoms: _357  and  _359
REMARK  143  A    between atoms: _359  and  _360
REMARK  144  A    between atoms: _359  and  _362
REMARK  145  A    between atoms: _362  and  _363
REMARK  146  A    between atoms: _368  and  _370
REMARK  147  A    between atoms: _370  and  _371
REMARK  148  A    between atoms: _370  and  _373
REMARK  149  A    between atoms: _373  and  _374
REMARK  150  A    between atoms: _384  and  _386
REMARK  151  A    between atoms: _386  and  _387
REMARK  152  A    between atoms: _386  and  _389
REMARK  153  A    between atoms: _389  and  _390
REMARK  154  A    between atoms: _390  and  _391
REMARK  155  A    between atoms: _391  and  _392
REMARK  156  A    between atoms: _392  and  _393
REMARK  157  A    between atoms: _397  and  _399
REMARK  158  A    between atoms: _399  and  _400
REMARK  159  A    between atoms: _399  and  _402
REMARK  160  A    between atoms: _402  and  _403
REMARK  161  A    between atoms: _406  and  _408
REMARK  162  A    between atoms: _408  and  _409
REMARK  163  A    between atoms: _408  and  _411
REMARK  164  A    between atoms: _411  and  _412
REMARK  165  A    between atoms: _418  and  _420
REMARK  166  A    between atoms: _420  and  _421
REMARK  167  A    between atoms: _420  and  _423
REMARK  168  A    between atoms: _423  and  _424
REMARK  169  A    between atoms: _427  and  _429
REMARK  170  A    between atoms: _429  and  _430
REMARK  171  A    between atoms: _429  and  _432
REMARK  172  A    between atoms: _432  and  _433
REMARK  173  A    between atoms: _436  and  _438
REMARK  174  A    between atoms: _438  and  _439
REMARK  175  A    between atoms: _438  and  _441
REMARK  176  A    between atoms: _441  and  _442
REMARK  177  A    between atoms: _445  and  _447
REMARK  178  A    between atoms: _447  and  _448
REMARK  179  A    between atoms: _447  and  _450
REMARK  180  A    between atoms: _450  and  _451
REMARK  181  A    between atoms: _451  and  _452
REMARK  182  A    between atoms: _452  and  _453
REMARK  183  A    between atoms: _462  and  _464
REMARK  184  A    between atoms: _464  and  _465
REMARK  185  A    between atoms: _464  and  _467
REMARK  186  A    between atoms: _467  and  _468
REMARK  187  A    between atoms: _473  and  _475
REMARK  188  A    between atoms: _475  and  _476
REMARK  189  A    between atoms: _475  and  _478
REMARK  190  A    between atoms: _478  and  _479
REMARK  191  A    between atoms: _479  and  _480
REMARK  192  A    between atoms: _485  and  _487
REMARK  193  A    between atoms: _487  and  _488
REMARK  194  A    between atoms: _490  and  _492
REMARK  195  A    between atoms: _492  and  _493
REMARK  196  A    between atoms: _492  and  _495
REMARK  197  A    between atoms: _495  and  _496
REMARK  198  A    between atoms: _502  and  _504
REMARK  199  A    between atoms: _504  and  _505
REMARK  200  A    between atoms: _508  and  _510
REMARK  201  A    between atoms: _510  and  _511
REMARK  202  A    between atoms: _510  and  _513
REMARK  203  A    between atoms: _513  and  _514
REMARK  204  A    between atoms: _514  and  _515
REMARK  205  A    between atoms: _515  and  _516
REMARK  206  A    between atoms: _525  and  _527
REMARK  207  A    between atoms: _527  and  _528
REMARK  208  A    between atoms: _531  and  _533
REMARK  209  A    between atoms: _533  and  _534
REMARK  210  A    between atoms: _536  and  _538
REMARK  211  A    between atoms: _538  and  _539
REMARK  212  A    between atoms: _538  and  _541
REMARK  213  A    between atoms: _541  and  _542
REMARK  214  A    between atoms: _552  and  _554
REMARK  215  A    between atoms: _554  and  _555
REMARK  216  A    between atoms: _554  and  _557
REMARK  217  A    between atoms: _557  and  _558
REMARK  218  A    between atoms: _559  and  _561
REMARK  219  A    between atoms: _561  and  _562
REMARK  220  A    between atoms: _565  and  _567
REMARK  221  A    between atoms: _567  and  _568
REMARK  222  A    between atoms: _567  and  _570
REMARK  223  A    between atoms: _570  and  _571
REMARK  224  A    between atoms: _574  and  _576
REMARK  225  A    between atoms: _576  and  _577
REMARK  226  A    between atoms: _576  and  _579
REMARK  227  A    between atoms: _579  and  _580
REMARK  228  A    between atoms: _585  and  _586
REMARK  229  A    between atoms: _588  and  _590
REMARK  230  A    between atoms: _590  and  _591
REMARK  231  A    between atoms: _590  and  _593
REMARK  232  A    between atoms: _593  and  _594
REMARK  233  A    between atoms: _596  and  _598
REMARK  234  A    between atoms: _598  and  _599
REMARK  235  A    between atoms: _598  and  _601
REMARK  236  A    between atoms: _601  and  _602
REMARK  237  A    between atoms: _608  and  _610
REMARK  238  A    between atoms: _610  and  _611
REMARK  239  A    between atoms: _610  and  _613
REMARK  240  A    between atoms: _613  and  _614
REMARK  241  A    between atoms: _617  and  _619
REMARK  242  A    between atoms: _619  and  _620
REMARK  243  A    between atoms: _619  and  _622
REMARK  244  A    between atoms: _622  and  _623
REMARK  245  A    between atoms: _625  and  _627
REMARK  246  A    between atoms: _627  and  _628
REMARK  247  A    between atoms: _627  and  _630
REMARK  248  A    between atoms: _630  and  _631
REMARK  249  A    between atoms: _636  and  _638
REMARK  250  A    between atoms: _638  and  _639
REMARK  251  A    between atoms: _638  and  _641
REMARK  252  A    between atoms: _641  and  _642
REMARK  253  A    between atoms: _647  and  _649
REMARK  254  A    between atoms: _649  and  _650
REMARK  255  A    between atoms: _649  and  _652
REMARK  256  A    between atoms: _652  and  _653
REMARK  257  A    between atoms: _656  and  _658
REMARK  258  A    between atoms: _658  and  _659
REMARK  259  A    between atoms: _662  and  _664
REMARK  260  A    between atoms: _664  and  _665
REMARK  261  A    between atoms: _664  and  _667
REMARK  262  A    between atoms: _667  and  _668
REMARK  263  A    between atoms: _673  and  _674
REMARK  264  A    between atoms: _676  and  _678
REMARK  265  A    between atoms: _678  and  _679
REMARK  266  A    between atoms: _678  and  _681
REMARK  267  A    between atoms: _681  and  _682
REMARK  268  A    between atoms: _687  and  _688
REMARK  269  A    between atoms: _690  and  _692
REMARK  270  A    between atoms: _692  and  _693
REMARK  271  A    between atoms: _692  and  _695
REMARK  272  A    between atoms: _698  and  _700
REMARK  273  A    between atoms: _700  and  _701
REMARK  274  A    between atoms: _700  and  _703
REMARK  275  A    between atoms: _703  and  _704
REMARK  276  A    between atoms: _709  and  _711
REMARK  277  A    between atoms: _711  and  _712
REMARK  278  A    between atoms: _715  and  _717
REMARK  279  A    between atoms: _717  and  _718
REMARK  280  A    between atoms: _717  and  _720
REMARK  281  A    between atoms: _720  and  _721
REMARK  282  A    between atoms: _721  and  _722
REMARK  283  A    between atoms: _722  and  _723
REMARK  284  A    between atoms: _732  and  _734
REMARK  285  A    between atoms: _734  and  _735
REMARK  286  A    between atoms: _734  and  _737
REMARK  287  A    between atoms: _737  and  _738
REMARK  288  A    between atoms: _741  and  _743
REMARK  289  A    between atoms: _743  and  _744
REMARK  290  A    between atoms: _743  and  _746
REMARK  291  A    between atoms: _746  and  _747
REMARK  292  A    between atoms: _750  and  _752
REMARK  293  A    between atoms: _752  and  _753
REMARK  294  A    between atoms: _752  and  _755
REMARK  295  A    between atoms: _755  and  _756
REMARK  296  A    between atoms: _797  and  _800
REMARK                            x       y       z     vdW  Elec       q    Type
REMARK                         _______ _______ _______ _____ _____    ______ ____
ROOT
ATOM      1  C   SER A   1      10.001  12.111  19.580  0.00  0.00    +0.241 C 
ATOM      2  N   PHE A   2       9.356  11.534  20.586  0.00  0.00    -0.298 N 
ATOM      3  H   PHE A   2       9.330  10.498  20.668  0.00  0.00    +0.150 HD
ATOM      4  O   SER A   1       9.933  13.325  19.351  0.00  0.00    -0.274 OA
ENDROOT
BRANCH   1   5
ATOM      5  CA  SER A   1      10.878  11.213  18.704  0.00  0.00    +0.174 C 
BRANCH   5   6
ATOM      6  N   SER A   1      11.398  10.105  19.502  0.00  0.00    -0.236 NA
ATOM      7  H   SER A   1      11.162   9.124  19.251  0.00  0.00    +0.142 HD
ENDBRANCH   5   6
BRANCH   5   8
ATOM      8  CB  SER A   1      10.083  10.720  17.502  0.00  0.00    +0.163 C 
BRANCH   8   9
ATOM      9  OG  SER A   1       9.812  11.822  16.663  0.00  0.00    -0.380 OA
ATOM     10  H   SER A   1      10.665  12.224  16.363  0.00  0.00    +0.211 HD
ENDBRANCH   8   9
ENDBRANCH   5   8
ENDBRANCH   1   5
BRANCH   2  11
ATOM     11  CA  PHE A   2       8.683  12.371  21.578  0.00  0.00    +0.141 C 
BRANCH  11  12
ATOM     12  C   PHE A   2       9.621  12.731  22.733  0.00  0.00    +0.227 C 
ATOM     13  O   PHE A   2       9.780  13.902  23.104  0.00  0.00    -0.286 OA
ENDBRANCH  11  12
BRANCH  11  14
ATOM     14  CB  PHE A   2       7.483  11.623  22.187  0.00  0.00    +0.054 C 
BRANCH  14  15
ATOM     15  CG  PHE A   2       6.224  11.751  21.344  0.00  0.00    -0.020 A 
ATOM     16  CD2 PHE A   2       5.191  12.549  21.793  0.00  0.00    -0.004 A 
ATOM     17  CE2 PHE A   2       4.047  12.725  21.026  0.00  0.00    -0.000 A 
ATOM     18  CZ  PHE A   2       3.947  12.065  19.806  0.00  0.00    -0.000 A 
ATOM     19  CE1 PHE A   2       4.975  11.268  19.354  0.00  0.00    -0.000 A 
ATOM     20  CD1 PHE A   2       6.118  11.104  20.124  0.00  0.00    -0.004 A 
ENDBRANCH  14  15
ENDBRANCH  11  14
ENDBRANCH   2  11
TORSDOF 8
REMARK  Name = ../refined-set-2016/1b1h/1b1h_pocket.pdb
REMARK  296 active torsions:
REMARK  status: ('A' for Active; 'I' for Inactive)
REMARK    1  A    between atoms: _1  and  _3
REMARK    2  A    between atoms: _3  and  _4
REMARK    3  A    between atoms: _3  and  _6
REMARK    4  A    between atoms: _6  and  _7
REMARK    5  A    between atoms: _12  and  _14
REMARK    6  A    between atoms: _14  and  _15
REMARK    7  A    between atoms: _17  and  _19
REMARK    8  A    between atoms: _19  and  _20
REMARK    9  A    between atoms: _19  and  _22
REMARK   10  A    between atoms: _22  and  _23
REMARK   11  A    between atoms: _25  and  _27
REMARK   12  A    between atoms: _27  and  _28
REMARK   13  A    between atoms: _27  and  _30
REMARK   14  A    between atoms: _30  and  _31
REMARK   15  A    between atoms: _31  and  _32
REMARK   16  A    between atoms: _37  and  _39
REMARK   17  A    between atoms: _39  and  _40
REMARK   18  A    between atoms: _39  and  _42
REMARK   19  A    between atoms: _42  and  _43
REMARK   20  A    between atoms: _46  and  _48
REMARK   21  A    between atoms: _48  and  _49
REMARK   22  A    between atoms: _48  and  _51
REMARK   23  A    between atoms: _51  and  _52
REMARK   24  A    between atoms: _52  and  _53
REMARK   25  A    between atoms: _56  and  _58
REMARK   26  A    between atoms: _58  and  _59
REMARK   27  A    between atoms: _61  and  _63
REMARK   28  A    between atoms: _63  and  _64
REMARK   29  A    between atoms: _63  and  _66
REMARK   30  A    between atoms: _70  and  _71
REMARK   31  A    between atoms: _76  and  _78
REMARK   32  A    between atoms: _78  and  _79
REMARK   33  A    between atoms: _78  and  _81
REMARK   34  A    between atoms: _81  and  _82
REMARK   35  A    between atoms: _82  and  _83
REMARK   36  A    between atoms: _86  and  _88
REMARK   37  A    between atoms: _88  and  _89
REMARK   38  A    between atoms: _88  and  _91
REMARK   39  A    between atoms: _91  and  _92
REMARK   40  A    between atoms: _94  and  _96
REMARK   41  A    between atoms: _96  and  _97
REMARK   42  A    between atoms: _96  and  _99
REMARK   43  A    between atoms: _99  and  _100
REMARK   44  A    between atoms: _105  and  _107
REMARK   45  A    between atoms: _107  and  _108
REMARK   46  A    between atoms: _107  and  _110
REMARK   47  A    between atoms: _110  and  _111
REMARK   48  A    between atoms: _111  and  _112
REMARK   49  A    between atoms: _112  and  _113
REMARK   50  A    between atoms: _123  and  _124
REMARK   51  A    between atoms: _129  and  _131
REMARK   52  A    between atoms: _131  and  _132
REMARK   53  A    between atoms: _131  and  _134
REMARK   54  A    between atoms: _134  and  _135
REMARK   55  A    between atoms: _140  and  _141
REMARK   56  A    between atoms: _143  and  _145
REMARK   57  A    between atoms: _145  and  _146
REMARK   58  A    between atoms: _145  and  _148
REMARK   59  A    between atoms: _148  and  _149
REMARK   60  A    between atoms: _154  and  _155
REMARK   61  A    between atoms: _157  and  _159
REMARK   62  A    between atoms: _159  and  _160
REMARK   63  A    between atoms: _159  and  _162
REMARK   64  A    between atoms: _165  and  _167
REMARK   65  A    between atoms: _167  and  _168
REMARK   66  A    between atoms: _167  and  _170
REMARK   67  A    between atoms: _170  and  _171
REMARK   68  A    between atoms: _177  and  _178
REMARK   69  A    between atoms: _183  and  _185
REMARK   70  A    between atoms: _185  and  _186
REMARK   71  A    between atoms: _185  and  _188
REMARK   72  A    between atoms: _188  and  _189
REMARK   73  A    between atoms: _191  and  _193
REMARK   74  A    between atoms: _193  and  _194
REMARK   75  A    between atoms: _193  and  _196
REMARK   76  A    between atoms: _196  and  _197
REMARK   77  A    between atoms: _197  and  _198
REMARK   78  A    between atoms: _201  and  _203
REMARK   79  A    between atoms: _203  and  _204
REMARK   80  A    between atoms: _203  and  _206
REMARK   81  A    between atoms: _206  and  _207
REMARK   82  A    between atoms: _212  and  _213
REMARK   83  A    between atoms: _215  and  _217
REMARK   84  A    between atoms: _217  and  _218
REMARK   85  A    between atoms: _217  and  _220
REMARK   86  A    between atoms: _220  and  _221
REMARK   87  A    between atoms: _226  and  _228
REMARK   88  A    between atoms: _228  and  _229
REMARK   89  A    between atoms: _228  and  _231
REMARK   90  A    between atoms: _231  and  _232
REMARK   91  A    between atoms: _237  and  _239
REMARK   92  A    between atoms: _239  and  _240
REMARK   93  A    between atoms: _239  and  _242
REMARK   94  A    between atoms: _242  and  _243
REMARK   95  A    between atoms: _243  and  _244
REMARK   96  A    between atoms: _246  and  _248
REMARK   97  A    between atoms: _248  and  _249
REMARK   98  A    between atoms: _248  and  _251
REMARK   99  A    between atoms: _251  and  _252
REMARK  100  A    between atoms: _257  and  _258
REMARK  101  A    between atoms: _260  and  _262
REMARK  102  A    between atoms: _262  and  _263
REMARK  103  A    between atoms: _262  and  _265
REMARK  104  A    between atoms: _265  and  _266
REMARK  105  A    between atoms: _269  and  _271
REMARK  106  A    between atoms: _271  and  _272
REMARK  107  A    between atoms: _271  and  _274
REMARK  108  A    between atoms: _274  and  _275
REMARK  109  A    between atoms: _275  and  _558
REMARK  110  A    between atoms: _276  and  _278
REMARK  111  A    between atoms: _278  and  _279
REMARK  112  A    between atoms: _278  and  _281
REMARK  113  A    between atoms: _281  and  _282
REMARK  114  A    between atoms: _285  and  _287
REMARK  115  A    between atoms: _287  and  _288
REMARK  116  A    between atoms: _287  and  _290
REMARK  117  A    between atoms: _290  and  _291
REMARK  118  A    between atoms: _296  and  _297
REMARK  119  A    between atoms: _299  and  _301
REMARK  120  A    between atoms: _301  and  _302
REMARK  121  A    between atoms: _301  and  _304
REMARK  122  A    between atoms: _304  and  _305
REMARK  123  A    between atoms: _310  and  _311
REMARK  124  A    between atoms: _313  and  _315
REMARK  125  A    between atoms: _315  and  _316
REMARK  126  A    between atoms: _315  and  _318
REMARK  127  A    between atoms: _318  and  _319
REMARK  128  A    between atoms: _319  and  _320
REMARK  129  A    between atoms: _323  and  _325
REMARK  130  A    between atoms: _325  and  _326
REMARK  131  A    between atoms: _325  and  _328
REMARK  132  A    between atoms: _328  and  _329
REMARK  133  A    between atoms: _334  and  _335
REMARK  134  A    between atoms: _337  and  _339
REMARK  135  A    between atoms: _339  and  _340
REMARK  136  A    between atoms: _339  and  _342
REMARK  137  A    between atoms: _342  and  _343
REMARK  138  A    between atoms: _348  and  _350
REMARK  139  A    between atoms: _350  and  _351
REMARK  140  A    between atoms: _350  and  _353
REMARK  141  A    between atoms: _353  and  _354
REMARK  142  A    between atoms: _357  and  _359
REMARK  143  A    between atoms: _359  and  _360
REMARK  144  A    between atoms: _359  and  _362
REMARK  145  A    between atoms: _362  and  _363
REMARK  146  A    between atoms: _368  and  _370
REMARK  147  A    between atoms: _370  and  _371
REMARK  148  A    between atoms: _370  and  _373
REMARK  149  A    between atoms: _373  and  _374
REMARK  150  A    between atoms: _384  and  _386
REMARK  151  A    between atoms: _386  and  _387
REMARK  152  A    between atoms: _386  and  _389
REMARK  153  A    between atoms: _389  and  _390
REMARK  154  A    between atoms: _390  and  _391
REMARK  155  A    between atoms: _391  and  _392
REMARK  156  A    between atoms: _392  and  _393
REMARK  157  A    between atoms: _397  and  _399
REMARK  158  A    between atoms: _399  and  _400
REMARK  159  A    between atoms: _399  and  _402
REMARK  160  A    between atoms: _402  and  _403
REMARK  161  A    between atoms: _406  and  _408
REMARK  162  A    between atoms: _408  and  _409
REMARK  163  A    between atoms: _408  and  _411
REMARK  164  A    between atoms: _411  and  _412
REMARK  165  A    between atoms: _418  and  _420
REMARK  166  A    between atoms: _420  and  _421
REMARK  167  A    between atoms: _420  and  _423
REMARK  168  A    between atoms: _423  and  _424
REMARK  169  A    between atoms: _427  and  _429
REMARK  170  A    between atoms: _429  and  _430
REMARK  171  A    between atoms: _429  and  _432
REMARK  172  A    between atoms: _432  and  _433
REMARK  173  A    between atoms: _436  and  _438
REMARK  174  A    between atoms: _438  and  _439
REMARK  175  A    between atoms: _438  and  _441
REMARK  176  A    between atoms: _441  and  _442
REMARK  177  A    between atoms: _445  and  _447
REMARK  178  A    between atoms: _447  and  _448
REMARK  179  A    between atoms: _447  and  _450
REMARK  180  A    between atoms: _450  and  _451
REMARK  181  A    between atoms: _451  and  _452
REMARK  182  A    between atoms: _452  and  _453
REMARK  183  A    between atoms: _462  and  _464
REMARK  184  A    between atoms: _464  and  _465
REMARK  185  A    between atoms: _464  and  _467
REMARK  186  A    between atoms: _467  and  _468
REMARK  187  A    between atoms: _473  and  _475
REMARK  188  A    between atoms: _475  and  _476
REMARK  189  A    between atoms: _475  and  _478
REMARK  190  A    between atoms: _478  and  _479
REMARK  191  A    between atoms: _479  and  _480
REMARK  192  A    between atoms: _485  and  _487
REMARK  193  A    between atoms: _487  and  _488
REMARK  194  A    between atoms: _490  and  _492
REMARK  195  A    between atoms: _492  and  _493
REMARK  196  A    between atoms: _492  and  _495
REMARK  197  A    between atoms: _495  and  _496
REMARK  198  A    between atoms: _502  and  _504
REMARK  199  A    between atoms: _504  and  _505
REMARK  200  A    between atoms: _508  and  _510
REMARK  201  A    between atoms: _510  and  _511
REMARK  202  A    between atoms: _510  and  _513
REMARK  203  A    between atoms: _513  and  _514
REMARK  204  A    between atoms: _514  and  _515
REMARK  205  A    between atoms: _515  and  _516
REMARK  206  A    between atoms: _525  and  _527
REMARK  207  A    between atoms: _527  and  _528
REMARK  208  A    between atoms: _531  and  _533
REMARK  209  A    between atoms: _533  and  _534
REMARK  210  A    between atoms: _536  and  _538
REMARK  211  A    between atoms: _538  and  _539
REMARK  212  A    between atoms: _538  and  _541
REMARK  213  A    between atoms: _541  and  _542
REMARK  214  A    between atoms: _552  and  _554
REMARK  215  A    between atoms: _554  and  _555
REMARK  216  A    between atoms: _554  and  _557
REMARK  217  A    between atoms: _557  and  _558
REMARK  218  A    between atoms: _559  and  _561
REMARK  219  A    between atoms: _561  and  _562
REMARK  220  A    between atoms: _565  and  _567
REMARK  221  A    between atoms: _567  and  _568
REMARK  222  A    between atoms: _567  and  _570
REMARK  223  A    between atoms: _570  and  _571
REMARK  224  A    between atoms: _574  and  _576
REMARK  225  A    between atoms: _576  and  _577
REMARK  226  A    between atoms: _576  and  _579
REMARK  227  A    between atoms: _579  and  _580
REMARK  228  A    between atoms: _585  and  _586
REMARK  229  A    between atoms: _588  and  _590
REMARK  230  A    between atoms: _590  and  _591
REMARK  231  A    between atoms: _590  and  _593
REMARK  232  A    between atoms: _593  and  _594
REMARK  233  A    between atoms: _596  and  _598
REMARK  234  A    between atoms: _598  and  _599
REMARK  235  A    between atoms: _598  and  _601
REMARK  236  A    between atoms: _601  and  _602
REMARK  237  A    between atoms: _608  and  _610
REMARK  238  A    between atoms: _610  and  _611
REMARK  239  A    between atoms: _610  and  _613
REMARK  240  A    between atoms: _613  and  _614
REMARK  241  A    between atoms: _617  and  _619
REMARK  242  A    between atoms: _619  and  _620
REMARK  243  A    between atoms: _619  and  _622
REMARK  244  A    between atoms: _622  and  _623
REMARK  245  A    between atoms: _625  and  _627
REMARK  246  A    between atoms: _627  and  _628
REMARK  247  A    between atoms: _627  and  _630
REMARK  248  A    between atoms: _630  and  _631
REMARK  249  A    between atoms: _636  and  _638
REMARK  250  A    between atoms: _638  and  _639
REMARK  251  A    between atoms: _638  and  _641
REMARK  252  A    between atoms: _641  and  _642
REMARK  253  A    between atoms: _647  and  _649
REMARK  254  A    between atoms: _649  and  _650
REMARK  255  A    between atoms: _649  and  _652
REMARK  256  A    between atoms: _652  and  _653
REMARK  257  A    between atoms: _656  and  _658
REMARK  258  A    between atoms: _658  and  _659
REMARK  259  A    between atoms: _662  and  _664
REMARK  260  A    between atoms: _664  and  _665
REMARK  261  A    between atoms: _664  and  _667
REMARK  262  A    between atoms: _667  and  _668
REMARK  263  A    between atoms: _673  and  _674
REMARK  264  A    between atoms: _676  and  _678
REMARK  265  A    between atoms: _678  and  _679
REMARK  266  A    between atoms: _678  and  _681
REMARK  267  A    between atoms: _681  and  _682
REMARK  268  A    between atoms: _687  and  _688
REMARK  269  A    between atoms: _690  and  _692
REMARK  270  A    between atoms: _692  and  _693
REMARK  271  A    between atoms: _692  and  _695
REMARK  272  A    between atoms: _698  and  _700
REMARK  273  A    between atoms: _700  and  _701
REMARK  274  A    between atoms: _700  and  _703
REMARK  275  A    between atoms: _703  and  _704
REMARK  276  A    between atoms: _709  and  _711
REMARK  277  A    between atoms: _711  and  _712
REMARK  278  A    between atoms: _715  and  _717
REMARK  279  A    between atoms: _717  and  _718
REMARK  280  A    between atoms: _717  and  _720
REMARK  281  A    between atoms: _720  and  _721
REMARK  282  A    between atoms: _721  and  _722
REMARK  283  A    between atoms: _722  and  _723
REMARK  284  A    between atoms: _732  and  _734
REMARK  285  A    between atoms: _734  and  _735
REMARK  286  A    between atoms: _734  and  _737
REMARK  287  A    between atoms: _737  and  _738
REMARK  288  A    between atoms: _741  and  _743
REMARK  289  A    between atoms: _743  and  _744
REMARK  290  A    between atoms: _743  and  _746
REMARK  291  A    between atoms: _746  and  _747
REMARK  292  A    between atoms: _750  and  _752
REMARK  293  A    between atoms: _752  and  _753
REMARK  294  A    between atoms: _752  and  _755
REMARK  295  A    between atoms: _755  and  _756
REMARK  296  A    between atoms: _797  and  _800
REMARK                            x       y       z     vdW  Elec       q    Type
REMARK                         _______ _______ _______ _____ _____    ______ ____
ROOT
ATOM      1  CA  THR A   1      11.814  16.969  23.122  0.00  0.00    +0.160 C 
ENDROOT
BRANCH   1   2
ATOM      2  N   THR A   1      12.267  15.592  23.050  0.00  0.00    -0.237 NA
ATOM      3  H   THR A   1      11.601  14.842  22.776  0.00  0.00    +0.142 HD
ENDBRANCH   1   2
BRANCH   1   4
ATOM      4  C   THR A   1      11.637  17.471  24.554  0.00  0.00    +0.227 C 
ATOM      5  O   THR A   1      11.444  18.686  24.729  0.00  0.00    -0.287 OA
ENDBRANCH   1   4
BRANCH   1   6
ATOM      6  CB  THR A   1      10.490  17.198  22.357  0.00  0.00    +0.134 C 
ATOM      7  CG2 THR A   1      10.646  16.738  20.913  0.00  0.00    +0.034 C 
BRANCH   6   8
ATOM      8  OG1 THR A   1       9.450  16.516  23.032  0.00  0.00    -0.383 OA
ATOM      9  HG1 THR A   1       9.657  15.548  23.063  0.00  0.00    +0.210 HD
ENDBRANCH   6   8
ENDBRANCH   1   6
TORSDOF 4
REMARK  Name = ../refined-set-2016/1b1h/1b1h_pocket.pdb
REMARK  296 active torsions:
REMARK  status: ('A' for Active; 'I' for Inactive)
REMARK    1  A    between atoms: _1  and  _3
REMARK    2  A    between atoms: _3  and  _4
REMARK    3  A    between atoms: _3  and  _6
REMARK    4  A    between atoms: _6  and  _7
REMARK    5  A    between atoms: _12  and  _14
REMARK    6  A    between atoms: _14  and  _15
REMARK    7  A    between atoms: _17  and  _19
REMARK    8  A    between atoms: _19  and  _20
REMARK    9  A    between atoms: _19  and  _22
REMARK   10  A    between atoms: _22  and  _23
REMARK   11  A    between atoms: _25  and  _27
REMARK   12  A    between atoms: _27  and  _28
REMARK   13  A    between atoms: _27  and  _30
REMARK   14  A    between atoms: _30  and  _31
REMARK   15  A    between atoms: _31  and  _32
REMARK   16  A    between atoms: _37  and  _39
REMARK   17  A    between atoms: _39  and  _40
REMARK   18  A    between atoms: _39  and  _42
REMARK   19  A    between atoms: _42  and  _43
REMARK   20  A    between atoms: _46  and  _48
REMARK   21  A    between atoms: _48  and  _49
REMARK   22  A    between atoms: _48  and  _51
REMARK   23  A    between atoms: _51  and  _52
REMARK   24  A    between atoms: _52  and  _53
REMARK   25  A    between atoms: _56  and  _58
REMARK   26  A    between atoms: _58  and  _59
REMARK   27  A    between atoms: _61  and  _63
REMARK   28  A    between atoms: _63  and  _64
REMARK   29  A    between atoms: _63  and  _66
REMARK   30  A    between atoms: _70  and  _71
REMARK   31  A    between atoms: _76  and  _78
REMARK   32  A    between atoms: _78  and  _79
REMARK   33  A    between atoms: _78  and  _81
REMARK   34  A    between atoms: _81  and  _82
REMARK   35  A    between atoms: _82  and  _83
REMARK   36  A    between atoms: _86  and  _88
REMARK   37  A    between atoms: _88  and  _89
REMARK   38  A    between atoms: _88  and  _91
REMARK   39  A    between atoms: _91  and  _92
REMARK   40  A    between atoms: _94  and  _96
REMARK   41  A    between atoms: _96  and  _97
REMARK   42  A    between atoms: _96  and  _99
REMARK   43  A    between atoms: _99  and  _100
REMARK   44  A    between atoms: _105  and  _107
REMARK   45  A    between atoms: _107  and  _108
REMARK   46  A    between atoms: _107  and  _110
REMARK   47  A    between atoms: _110  and  _111
REMARK   48  A    between atoms: _111  and  _112
REMARK   49  A    between atoms: _112  and  _113
REMARK   50  A    between atoms: _123  and  _124
REMARK   51  A    between atoms: _129  and  _131
REMARK   52  A    between atoms: _131  and  _132
REMARK   53  A    between atoms: _131  and  _134
REMARK   54  A    between atoms: _134  and  _135
REMARK   55  A    between atoms: _140  and  _141
REMARK   56  A    between atoms: _143  and  _145
REMARK   57  A    between atoms: _145  and  _146
REMARK   58  A    between atoms: _145  and  _148
REMARK   59  A    between atoms: _148  and  _149
REMARK   60  A    between atoms: _154  and  _155
REMARK   61  A    between atoms: _157  and  _159
REMARK   62  A    between atoms: _159  and  _160
REMARK   63  A    between atoms: _159  and  _162
REMARK   64  A    between atoms: _165  and  _167
REMARK   65  A    between atoms: _167  and  _168
REMARK   66  A    between atoms: _167  and  _170
REMARK   67  A    between atoms: _170  and  _171
REMARK   68  A    between atoms: _177  and  _178
REMARK   69  A    between atoms: _183  and  _185
REMARK   70  A    between atoms: _185  and  _186
REMARK   71  A    between atoms: _185  and  _188
REMARK   72  A    between atoms: _188  and  _189
REMARK   73  A    between atoms: _191  and  _193
REMARK   74  A    between atoms: _193  and  _194
REMARK   75  A    between atoms: _193  and  _196
REMARK   76  A    between atoms: _196  and  _197
REMARK   77  A    between atoms: _197  and  _198
REMARK   78  A    between atoms: _201  and  _203
REMARK   79  A    between atoms: _203  and  _204
REMARK   80  A    between atoms: _203  and  _206
REMARK   81  A    between atoms: _206  and  _207
REMARK   82  A    between atoms: _212  and  _213
REMARK   83  A    between atoms: _215  and  _217
REMARK   84  A    between atoms: _217  and  _218
REMARK   85  A    between atoms: _217  and  _220
REMARK   86  A    between atoms: _220  and  _221
REMARK   87  A    between atoms: _226  and  _228
REMARK   88  A    between atoms: _228  and  _229
REMARK   89  A    between atoms: _228  and  _231
REMARK   90  A    between atoms: _231  and  _232
REMARK   91  A    between atoms: _237  and  _239
REMARK   92  A    between atoms: _239  and  _240
REMARK   93  A    between atoms: _239  and  _242
REMARK   94  A    between atoms: _242  and  _243
REMARK   95  A    between atoms: _243  and  _244
REMARK   96  A    between atoms: _246  and  _248
REMARK   97  A    between atoms: _248  and  _249
REMARK   98  A    between atoms: _248  and  _251
REMARK   99  A    between atoms: _251  and  _252
REMARK  100  A    between atoms: _257  and  _258
REMARK  101  A    between atoms: _260  and  _262
REMARK  102  A    between atoms: _262  and  _263
REMARK  103  A    between atoms: _262  and  _265
REMARK  104  A    between atoms: _265  and  _266
REMARK  105  A    between atoms: _269  and  _271
REMARK  106  A    between atoms: _271  and  _272
REMARK  107  A    between atoms: _271  and  _274
REMARK  108  A    between atoms: _274  and  _275
REMARK  109  A    between atoms: _275  and  _558
REMARK  110  A    between atoms: _276  and  _278
REMARK  111  A    between atoms: _278  and  _279
REMARK  112  A    between atoms: _278  and  _281
REMARK  113  A    between atoms: _281  and  _282
REMARK  114  A    between atoms: _285  and  _287
REMARK  115  A    between atoms: _287  and  _288
REMARK  116  A    between atoms: _287  and  _290
REMARK  117  A    between atoms: _290  and  _291
REMARK  118  A    between atoms: _296  and  _297
REMARK  119  A    between atoms: _299  and  _301
REMARK  120  A    between atoms: _301  and  _302
REMARK  121  A    between atoms: _301  and  _304
REMARK  122  A    between atoms: _304  and  _305
REMARK  123  A    between atoms: _310  and  _311
REMARK  124  A    between atoms: _313  and  _315
REMARK  125  A    between atoms: _315  and  _316
REMARK  126  A    between atoms: _315  and  _318
REMARK  127  A    between atoms: _318  and  _319
REMARK  128  A    between atoms: _319  and  _320
REMARK  129  A    between atoms: _323  and  _325
REMARK  130  A    between atoms: _325  and  _326
REMARK  131  A    between atoms: _325  and  _328
REMARK  132  A    between atoms: _328  and  _329
REMARK  133  A    between atoms: _334  and  _335
REMARK  134  A    between atoms: _337  and  _339
REMARK  135  A    between atoms: _339  and  _340
REMARK  136  A    between atoms: _339  and  _342
REMARK  137  A    between atoms: _342  and  _343
REMARK  138  A    between atoms: _348  and  _350
REMARK  139  A    between atoms: _350  and  _351
REMARK  140  A    between atoms: _350  and  _353
REMARK  141  A    between atoms: _353  and  _354
REMARK  142  A    between atoms: _357  and  _359
REMARK  143  A    between atoms: _359  and  _360
REMARK  144  A    between atoms: _359  and  _362
REMARK  145  A    between atoms: _362  and  _363
REMARK  146  A    between atoms: _368  and  _370
REMARK  147  A    between atoms: _370  and  _371
REMARK  148  A    between atoms: _370  and  _373
REMARK  149  A    between atoms: _373  and  _374
REMARK  150  A    between atoms: _384  and  _386
REMARK  151  A    between atoms: _386  and  _387
REMARK  152  A    between atoms: _386  and  _389
REMARK  153  A    between atoms: _389  and  _390
REMARK  154  A    between atoms: _390  and  _391
REMARK  155  A    between atoms: _391  and  _392
REMARK  156  A    between atoms: _392  and  _393
REMARK  157  A    between atoms: _397  and  _399
REMARK  158  A    between atoms: _399  and  _400
REMARK  159  A    between atoms: _399  and  _402
REMARK  160  A    between atoms: _402  and  _403
REMARK  161  A    between atoms: _406  and  _408
REMARK  162  A    between atoms: _408  and  _409
REMARK  163  A    between atoms: _408  and  _411
REMARK  164  A    between atoms: _411  and  _412
REMARK  165  A    between atoms: _418  and  _420
REMARK  166  A    between atoms: _420  and  _421
REMARK  167  A    between atoms: _420  and  _423
REMARK  168  A    between atoms: _423  and  _424
REMARK  169  A    between atoms: _427  and  _429
REMARK  170  A    between atoms: _429  and  _430
REMARK  171  A    between atoms: _429  and  _432
REMARK  172  A    between atoms: _432  and  _433
REMARK  173  A    between atoms: _436  and  _438
REMARK  174  A    between atoms: _438  and  _439
REMARK  175  A    between atoms: _438  and  _441
REMARK  176  A    between atoms: _441  and  _442
REMARK  177  A    between atoms: _445  and  _447
REMARK  178  A    between atoms: _447  and  _448
REMARK  179  A    between atoms: _447  and  _450
REMARK  180  A    between atoms: _450  and  _451
REMARK  181  A    between atoms: _451  and  _452
REMARK  182  A    between atoms: _452  and  _453
REMARK  183  A    between atoms: _462  and  _464
REMARK  184  A    between atoms: _464  and  _465
REMARK  185  A    between atoms: _464  and  _467
REMARK  186  A    between atoms: _467  and  _468
REMARK  187  A    between atoms: _473  and  _475
REMARK  188  A    between atoms: _475  and  _476
REMARK  189  A    between atoms: _475  and  _478
REMARK  190  A    between atoms: _478  and  _479
REMARK  191  A    between atoms: _479  and  _480
REMARK  192  A    between atoms: _485  and  _487
REMARK  193  A    between atoms: _487  and  _488
REMARK  194  A    between atoms: _490  and  _492
REMARK  195  A    between atoms: _492  and  _493
REMARK  196  A    between atoms: _492  and  _495
REMARK  197  A    between atoms: _495  and  _496
REMARK  198  A    between atoms: _502  and  _504
REMARK  199  A    between atoms: _504  and  _505
REMARK  200  A    between atoms: _508  and  _510
REMARK  201  A    between atoms: _510  and  _511
REMARK  202  A    between atoms: _510  and  _513
REMARK  203  A    between atoms: _513  and  _514
REMARK  204  A    between atoms: _514  and  _515
REMARK  205  A    between atoms: _515  and  _516
REMARK  206  A    between atoms: _525  and  _527
REMARK  207  A    between atoms: _527  and  _528
REMARK  208  A    between atoms: _531  and  _533
REMARK  209  A    between atoms: _533  and  _534
REMARK  210  A    between atoms: _536  and  _538
REMARK  211  A    between atoms: _538  and  _539
REMARK  212  A    between atoms: _538  and  _541
REMARK  213  A    between atoms: _541  and  _542
REMARK  214  A    between atoms: _552  and  _554
REMARK  215  A    between atoms: _554  and  _555
REMARK  216  A    between atoms: _554  and  _557
REMARK  217  A    between atoms: _557  and  _558
REMARK  218  A    between atoms: _559  and  _561
REMARK  219  A    between atoms: _561  and  _562
REMARK  220  A    between atoms: _565  and  _567
REMARK  221  A    between atoms: _567  and  _568
REMARK  222  A    between atoms: _567  and  _570
REMARK  223  A    between atoms: _570  and  _571
REMARK  224  A    between atoms: _574  and  _576
REMARK  225  A    between atoms: _576  and  _577
REMARK  226  A    between atoms: _576  and  _579
REMARK  227  A    between atoms: _579  and  _580
REMARK  228  A    between atoms: _585  and  _586
REMARK  229  A    between atoms: _588  and  _590
REMARK  230  A    between atoms: _590  and  _591
REMARK  231  A    between atoms: _590  and  _593
REMARK  232  A    between atoms: _593  and  _594
REMARK  233  A    between atoms: _596  and  _598
REMARK  234  A    between atoms: _598  and  _599
REMARK  235  A    between atoms: _598  and  _601
REMARK  236  A    between atoms: _601  and  _602
REMARK  237  A    between atoms: _608  and  _610
REMARK  238  A    between atoms: _610  and  _611
REMARK  239  A    between atoms: _610  and  _613
REMARK  240  A    between atoms: _613  and  _614
REMARK  241  A    between atoms: _617  and  _619
REMARK  242  A    between atoms: _619  and  _620
REMARK  243  A    between atoms: _619  and  _622
REMARK  244  A    between atoms: _622  and  _623
REMARK  245  A    between atoms: _625  and  _627
REMARK  246  A    between atoms: _627  and  _628
REMARK  247  A    between atoms: _627  and  _630
REMARK  248  A    between atoms: _630  and  _631
REMARK  249  A    between atoms: _636  and  _638
REMARK  250  A    between atoms: _638  and  _639
REMARK  251  A    between atoms: _638  and  _641
REMARK  252  A    between atoms: _641  and  _642
REMARK  253  A    between atoms: _647  and  _649
REMARK  254  A    between atoms: _649  and  _650
REMARK  255  A    between atoms: _649  and  _652
REMARK  256  A    between atoms: _652  and  _653
REMARK  257  A    between atoms: _656  and  _658
REMARK  258  A    between atoms: _658  and  _659
REMARK  259  A    between atoms: _662  and  _664
REMARK  260  A    between atoms: _664  and  _665
REMARK  261  A    between atoms: _664  and  _667
REMARK  262  A    between atoms: _667  and  _668
REMARK  263  A    between atoms: _673  and  _674
REMARK  264  A    between atoms: _676  and  _678
REMARK  265  A    between atoms: _678  and  _679
REMARK  266  A    between atoms: _678  and  _681
REMARK  267  A    between atoms: _681  and  _682
REMARK  268  A    between atoms: _687  and  _688
REMARK  269  A    between atoms: _690  and  _692
REMARK  270  A    between atoms: _692  and  _693
REMARK  271  A    between atoms: _692  and  _695
REMARK  272  A    between atoms: _698  and  _700
REMARK  273  A    between atoms: _700  and  _701
REMARK  274  A    between atoms: _700  and  _703
REMARK  275  A    between atoms: _703  and  _704
REMARK  276  A    between atoms: _709  and  _711
REMARK  277  A    between atoms: _711  and  _712
REMARK  278  A    between atoms: _715  and  _717
REMARK  279  A    between atoms: _717  and  _718
REMARK  280  A    between atoms: _717  and  _720
REMARK  281  A    between atoms: _720  and  _721
REMARK  282  A    between atoms: _721  and  _722
REMARK  283  A    between atoms: _722  and  _723
REMARK  284  A    between atoms: _732  and  _734
REMARK  285  A    between atoms: _734  and  _735
REMARK  286  A    between atoms: _734  and  _737
REMARK  287  A    between atoms: _737  and  _738
REMARK  288  A    between atoms: _741  and  _743
REMARK  289  A    between atoms: _743  and  _744
REMARK  290  A    between atoms: _743  and  _746
REMARK  291  A    between atoms: _746  and  _747
REMARK  292  A    between atoms: _750  and  _752
REMARK  293  A    between atoms: _752  and  _753
REMARK  294  A    between atoms: _752  and  _755
REMARK  295  A    between atoms: _755  and  _756
REMARK  296  A    between atoms: _797  and  _800
REMARK                            x       y       z     vdW  Elec       q    Type
REMARK                         _______ _______ _______ _____ _____    ______ ____
ROOT
ATOM      1  CA  ASN A   3      11.427  21.959  24.643  0.00  0.00    +0.158 C 
ENDROOT
BRANCH   1   3
ATOM      2  C   ASN A   2      11.355  21.739  22.234  0.00  0.00    +0.241 C 
ATOM      3  N   ASN A   3      12.077  21.985  23.327  0.00  0.00    -0.297 N 
ATOM      4  H   ASN A   3      13.093  22.194  23.248  0.00  0.00    +0.150 HD
ATOM      5  O   ASN A   2      10.127  21.540  22.261  0.00  0.00    -0.273 OA
BRANCH   2   6
ATOM      6  CA  ASN A   2      12.060  21.666  20.876  0.00  0.00    +0.158 C 
BRANCH   6   8
ATOM      7  C   SER A   1      14.097  23.028  20.846  0.00  0.00    +0.241 C 
ATOM      8  N   ASN A   2      13.503  21.835  20.960  0.00  0.00    -0.297 N 
ATOM      9  H   ASN A   2      14.096  20.995  21.115  0.00  0.00    +0.150 HD
ATOM     10  O   SER A   1      13.451  24.045  20.544  0.00  0.00    -0.274 OA
BRANCH   7  11
ATOM     11  CA  SER A   1      15.598  23.133  21.033  0.00  0.00    +0.174 C 
BRANCH  11  12
ATOM     12  N   SER A   1      16.115  21.967  21.734  0.00  0.00    -0.236 NA
ATOM     13  H   SER A   1      16.752  21.324  21.221  0.00  0.00    +0.142 HD
ENDBRANCH  11  12
BRANCH  11  14
ATOM     14  CB  SER A   1      16.334  23.322  19.695  0.00  0.00    +0.163 C 
BRANCH  14  15
ATOM     15  OG  SER A   1      16.051  22.245  18.798  0.00  0.00    -0.380 OA
ATOM     16  H   SER A   1      15.077  22.210  18.623  0.00  0.00    +0.211 HD
ENDBRANCH  14  15
ENDBRANCH  11  14
ENDBRANCH   7  11
ENDBRANCH   6   8
BRANCH   6  17
ATOM     17  CB  ASN A   2      11.702  20.313  20.243  0.00  0.00    +0.114 C 
BRANCH  17  18
ATOM     18  CG  ASN A   2      12.274  20.137  18.850  0.00  0.00    +0.222 C 
ATOM     19  OD1 ASN A   2      13.138  19.286  18.594  0.00  0.00    -0.275 OA
ATOM     20  ND2 ASN A   2      11.814  20.921  17.876  0.00  0.00    -0.329 N 
ATOM     21 HD21 ASN A   2      11.089  21.637  18.084  0.00  0.00    +0.145 HD
ATOM     22 HD22 ASN A   2      12.180  20.817  16.908  0.00  0.00    +0.145 HD
ENDBRANCH  17  18
ENDBRANCH   6  17
ENDBRANCH   2   6
ENDBRANCH   1   3
BRANCH   1  23
ATOM     23  C   ASN A   3      10.742  23.281  24.985  0.00  0.00    +0.241 C 
ATOM     24  O   ASN A   3      11.305  24.141  25.658  0.00  0.00    -0.273 OA
ATOM     25  N   THR A   4       9.478  23.387  24.570  0.00  0.00    -0.295 N 
ATOM     26  H   THR A   4       9.051  22.611  24.025  0.00  0.00    +0.150 HD
BRANCH  25  27
ATOM     27  CA  THR A   4       8.687  24.574  24.870  0.00  0.00    +0.176 C 
BRANCH  27  28
ATOM     28  C   THR A   4       7.900  24.367  26.148  0.00  0.00    +0.243 C 
ATOM     29  N   ALA A   5       7.960  23.184  26.778  0.00  0.00    -0.298 N 
ATOM     30  H   ALA A   5       8.415  22.372  26.314  0.00  0.00    +0.150 HD
ATOM     31  O   THR A   4       7.288  25.323  26.633  0.00  0.00    -0.273 OA
BRANCH  29  32
ATOM     32  CA  ALA A   5       7.390  23.033  28.109  0.00  0.00    +0.137 C 
ATOM     33  CB  ALA A   5       7.249  21.563  28.512  0.00  0.00    +0.030 C 
BRANCH  32  34
ATOM     34  C   ALA A   5       8.344  23.723  29.096  0.00  0.00    +0.227 C 
ATOM     35  O   ALA A   5       8.021  24.009  30.242  0.00  0.00    -0.286 OA
ENDBRANCH  32  34
ENDBRANCH  29  32
ENDBRANCH  27  28
BRANCH  27  36
ATOM     36  CB  THR A   4       7.817  25.002  23.680  0.00  0.00    +0.137 C 
ATOM     37  CG2 THR A   4       8.704  25.608  22.588  0.00  0.00    +0.034 C 
BRANCH  36  38
ATOM     38  OG1 THR A   4       7.156  23.859  23.134  0.00  0.00    -0.382 OA
ATOM     39  HG1 THR A   4       6.584  23.447  23.829  0.00  0.00    +0.210 HD
ENDBRANCH  36  38
ENDBRANCH  27  36
ENDBRANCH  25  27
ENDBRANCH   1  23
BRANCH   1  40
ATOM     40  CB  ASN A   3      12.488  21.611  25.698  0.00  0.00    +0.114 C 
BRANCH  40  41
ATOM     41  CG  ASN A   3      11.949  21.277  27.069  0.00  0.00    +0.222 C 
ATOM     42  ND2 ASN A   3      12.681  20.432  27.809  0.00  0.00    -0.329 N 
ATOM     43 HD21 ASN A   3      12.341  20.131  28.745  0.00  0.00    +0.145 HD
ATOM     44 HD22 ASN A   3      13.589  20.077  27.447  0.00  0.00    +0.145 HD
ATOM     45  OD1 ASN A   3      10.876  21.690  27.508  0.00  0.00    -0.275 OA
ENDBRANCH  40  41
ENDBRANCH   1  40
TORSDOF 18
REMARK  Name = ../refined-set-2016/1b1h/1b1h_pocket.pdb
REMARK  296 active torsions:
REMARK  status: ('A' for Active; 'I' for Inactive)
REMARK    1  A    between atoms: _1  and  _3
REMARK    2  A    between atoms: _3  and  _4
REMARK    3  A    between atoms: _3  and  _6
REMARK    4  A    between atoms: _6  and  _7
REMARK    5  A    between atoms: _12  and  _14
REMARK    6  A    between atoms: _14  and  _15
REMARK    7  A    between atoms: _17  and  _19
REMARK    8  A    between atoms: _19  and  _20
REMARK    9  A    between atoms: _19  and  _22
REMARK   10  A    between atoms: _22  and  _23
REMARK   11  A    between atoms: _25  and  _27
REMARK   12  A    between atoms: _27  and  _28
REMARK   13  A    between atoms: _27  and  _30
REMARK   14  A    between atoms: _30  and  _31
REMARK   15  A    between atoms: _31  and  _32
REMARK   16  A    between atoms: _37  and  _39
REMARK   17  A    between atoms: _39  and  _40
REMARK   18  A    between atoms: _39  and  _42
REMARK   19  A    between atoms: _42  and  _43
REMARK   20  A    between atoms: _46  and  _48
REMARK   21  A    between atoms: _48  and  _49
REMARK   22  A    between atoms: _48  and  _51
REMARK   23  A    between atoms: _51  and  _52
REMARK   24  A    between atoms: _52  and  _53
REMARK   25  A    between atoms: _56  and  _58
REMARK   26  A    between atoms: _58  and  _59
REMARK   27  A    between atoms: _61  and  _63
REMARK   28  A    between atoms: _63  and  _64
REMARK   29  A    between atoms: _63  and  _66
REMARK   30  A    between atoms: _70  and  _71
REMARK   31  A    between atoms: _76  and  _78
REMARK   32  A    between atoms: _78  and  _79
REMARK   33  A    between atoms: _78  and  _81
REMARK   34  A    between atoms: _81  and  _82
REMARK   35  A    between atoms: _82  and  _83
REMARK   36  A    between atoms: _86  and  _88
REMARK   37  A    between atoms: _88  and  _89
REMARK   38  A    between atoms: _88  and  _91
REMARK   39  A    between atoms: _91  and  _92
REMARK   40  A    between atoms: _94  and  _96
REMARK   41  A    between atoms: _96  and  _97
REMARK   42  A    between atoms: _96  and  _99
REMARK   43  A    between atoms: _99  and  _100
REMARK   44  A    between atoms: _105  and  _107
REMARK   45  A    between atoms: _107  and  _108
REMARK   46  A    between atoms: _107  and  _110
REMARK   47  A    between atoms: _110  and  _111
REMARK   48  A    between atoms: _111  and  _112
REMARK   49  A    between atoms: _112  and  _113
REMARK   50  A    between atoms: _123  and  _124
REMARK   51  A    between atoms: _129  and  _131
REMARK   52  A    between atoms: _131  and  _132
REMARK   53  A    between atoms: _131  and  _134
REMARK   54  A    between atoms: _134  and  _135
REMARK   55  A    between atoms: _140  and  _141
REMARK   56  A    between atoms: _143  and  _145
REMARK   57  A    between atoms: _145  and  _146
REMARK   58  A    between atoms: _145  and  _148
REMARK   59  A    between atoms: _148  and  _149
REMARK   60  A    between atoms: _154  and  _155
REMARK   61  A    between atoms: _157  and  _159
REMARK   62  A    between atoms: _159  and  _160
REMARK   63  A    between atoms: _159  and  _162
REMARK   64  A    between atoms: _165  and  _167
REMARK   65  A    between atoms: _167  and  _168
REMARK   66  A    between atoms: _167  and  _170
REMARK   67  A    between atoms: _170  and  _171
REMARK   68  A    between atoms: _177  and  _178
REMARK   69  A    between atoms: _183  and  _185
REMARK   70  A    between atoms: _185  and  _186
REMARK   71  A    between atoms: _185  and  _188
REMARK   72  A    between atoms: _188  and  _189
REMARK   73  A    between atoms: _191  and  _193
REMARK   74  A    between atoms: _193  and  _194
REMARK   75  A    between atoms: _193  and  _196
REMARK   76  A    between atoms: _196  and  _197
REMARK   77  A    between atoms: _197  and  _198
REMARK   78  A    between atoms: _201  and  _203
REMARK   79  A    between atoms: _203  and  _204
REMARK   80  A    between atoms: _203  and  _206
REMARK   81  A    between atoms: _206  and  _207
REMARK   82  A    between atoms: _212  and  _213
REMARK   83  A    between atoms: _215  and  _217
REMARK   84  A    between atoms: _217  and  _218
REMARK   85  A    between atoms: _217  and  _220
REMARK   86  A    between atoms: _220  and  _221
REMARK   87  A    between atoms: _226  and  _228
REMARK   88  A    between atoms: _228  and  _229
REMARK   89  A    between atoms: _228  and  _231
REMARK   90  A    between atoms: _231  and  _232
REMARK   91  A    between atoms: _237  and  _239
REMARK   92  A    between atoms: _239  and  _240
REMARK   93  A    between atoms: _239  and  _242
REMARK   94  A    between atoms: _242  and  _243
REMARK   95  A    between atoms: _243  and  _244
REMARK   96  A    between atoms: _246  and  _248
REMARK   97  A    between atoms: _248  and  _249
REMARK   98  A    between atoms: _248  and  _251
REMARK   99  A    between atoms: _251  and  _252
REMARK  100  A    between atoms: _257  and  _258
REMARK  101  A    between atoms: _260  and  _262
REMARK  102  A    between atoms: _262  and  _263
REMARK  103  A    between atoms: _262  and  _265
REMARK  104  A    between atoms: _265  and  _266
REMARK  105  A    between atoms: _269  and  _271
REMARK  106  A    between atoms: _271  and  _272
REMARK  107  A    between atoms: _271  and  _274
REMARK  108  A    between atoms: _274  and  _275
REMARK  109  A    between atoms: _275  and  _558
REMARK  110  A    between atoms: _276  and  _278
REMARK  111  A    between atoms: _278  and  _279
REMARK  112  A    between atoms: _278  and  _281
REMARK  113  A    between atoms: _281  and  _282
REMARK  114  A    between atoms: _285  and  _287
REMARK  115  A    between atoms: _287  and  _288
REMARK  116  A    between atoms: _287  and  _290
REMARK  117  A    between atoms: _290  and  _291
REMARK  118  A    between atoms: _296  and  _297
REMARK  119  A    between atoms: _299  and  _301
REMARK  120  A    between atoms: _301  and  _302
REMARK  121  A    between atoms: _301  and  _304
REMARK  122  A    between atoms: _304  and  _305
REMARK  123  A    between atoms: _310  and  _311
REMARK  124  A    between atoms: _313  and  _315
REMARK  125  A    between atoms: _315  and  _316
REMARK  126  A    between atoms: _315  and  _318
REMARK  127  A    between atoms: _318  and  _319
REMARK  128  A    between atoms: _319  and  _320
REMARK  129  A    between atoms: _323  and  _325
REMARK  130  A    between atoms: _325  and  _326
REMARK  131  A    between atoms: _325  and  _328
REMARK  132  A    between atoms: _328  and  _329
REMARK  133  A    between atoms: _334  and  _335
REMARK  134  A    between atoms: _337  and  _339
REMARK  135  A    between atoms: _339  and  _340
REMARK  136  A    between atoms: _339  and  _342
REMARK  137  A    between atoms: _342  and  _343
REMARK  138  A    between atoms: _348  and  _350
REMARK  139  A    between atoms: _350  and  _351
REMARK  140  A    between atoms: _350  and  _353
REMARK  141  A    between atoms: _353  and  _354
REMARK  142  A    between atoms: _357  and  _359
REMARK  143  A    between atoms: _359  and  _360
REMARK  144  A    between atoms: _359  and  _362
REMARK  145  A    between atoms: _362  and  _363
REMARK  146  A    between atoms: _368  and  _370
REMARK  147  A    between atoms: _370  and  _371
REMARK  148  A    between atoms: _370  and  _373
REMARK  149  A    between atoms: _373  and  _374
REMARK  150  A    between atoms: _384  and  _386
REMARK  151  A    between atoms: _386  and  _387
REMARK  152  A    between atoms: _386  and  _389
REMARK  153  A    between atoms: _389  and  _390
REMARK  154  A    between atoms: _390  and  _391
REMARK  155  A    between atoms: _391  and  _392
REMARK  156  A    between atoms: _392  and  _393
REMARK  157  A    between atoms: _397  and  _399
REMARK  158  A    between atoms: _399  and  _400
REMARK  159  A    between atoms: _399  and  _402
REMARK  160  A    between atoms: _402  and  _403
REMARK  161  A    between atoms: _406  and  _408
REMARK  162  A    between atoms: _408  and  _409
REMARK  163  A    between atoms: _408  and  _411
REMARK  164  A    between atoms: _411  and  _412
REMARK  165  A    between atoms: _418  and  _420
REMARK  166  A    between atoms: _420  and  _421
REMARK  167  A    between atoms: _420  and  _423
REMARK  168  A    between atoms: _423  and  _424
REMARK  169  A    between atoms: _427  and  _429
REMARK  170  A    between atoms: _429  and  _430
REMARK  171  A    between atoms: _429  and  _432
REMARK  172  A    between atoms: _432  and  _433
REMARK  173  A    between atoms: _436  and  _438
REMARK  174  A    between atoms: _438  and  _439
REMARK  175  A    between atoms: _438  and  _441
REMARK  176  A    between atoms: _441  and  _442
REMARK  177  A    between atoms: _445  and  _447
REMARK  178  A    between atoms: _447  and  _448
REMARK  179  A    between atoms: _447  and  _450
REMARK  180  A    between atoms: _450  and  _451
REMARK  181  A    between atoms: _451  and  _452
REMARK  182  A    between atoms: _452  and  _453
REMARK  183  A    between atoms: _462  and  _464
REMARK  184  A    between atoms: _464  and  _465
REMARK  185  A    between atoms: _464  and  _467
REMARK  186  A    between atoms: _467  and  _468
REMARK  187  A    between atoms: _473  and  _475
REMARK  188  A    between atoms: _475  and  _476
REMARK  189  A    between atoms: _475  and  _478
REMARK  190  A    between atoms: _478  and  _479
REMARK  191  A    between atoms: _479  and  _480
REMARK  192  A    between atoms: _485  and  _487
REMARK  193  A    between atoms: _487  and  _488
REMARK  194  A    between atoms: _490  and  _492
REMARK  195  A    between atoms: _492  and  _493
REMARK  196  A    between atoms: _492  and  _495
REMARK  197  A    between atoms: _495  and  _496
REMARK  198  A    between atoms: _502  and  _504
REMARK  199  A    between atoms: _504  and  _505
REMARK  200  A    between atoms: _508  and  _510
REMARK  201  A    between atoms: _510  and  _511
REMARK  202  A    between atoms: _510  and  _513
REMARK  203  A    between atoms: _513  and  _514
REMARK  204  A    between atoms: _514  and  _515
REMARK  205  A    between atoms: _515  and  _516
REMARK  206  A    between atoms: _525  and  _527
REMARK  207  A    between atoms: _527  and  _528
REMARK  208  A    between atoms: _531  and  _533
REMARK  209  A    between atoms: _533  and  _534
REMARK  210  A    between atoms: _536  and  _538
REMARK  211  A    between atoms: _538  and  _539
REMARK  212  A    between atoms: _538  and  _541
REMARK  213  A    between atoms: _541  and  _542
REMARK  214  A    between atoms: _552  and  _554
REMARK  215  A    between atoms: _554  and  _555
REMARK  216  A    between atoms: _554  and  _557
REMARK  217  A    between atoms: _557  and  _558
REMARK  218  A    between atoms: _559  and  _561
REMARK  219  A    between atoms: _561  and  _562
REMARK  220  A    between atoms: _565  and  _567
REMARK  221  A    between atoms: _567  and  _568
REMARK  222  A    between atoms: _567  and  _570
REMARK  223  A    between atoms: _570  and  _571
REMARK  224  A    between atoms: _574  and  _576
REMARK  225  A    between atoms: _576  and  _577
REMARK  226  A    between atoms: _576  and  _579
REMARK  227  A    between atoms: _579  and  _580
REMARK  228  A    between atoms: _585  and  _586
REMARK  229  A    between atoms: _588  and  _590
REMARK  230  A    between atoms: _590  and  _591
REMARK  231  A    between atoms: _590  and  _593
REMARK  232  A    between atoms: _593  and  _594
REMARK  233  A    between atoms: _596  and  _598
REMARK  234  A    between atoms: _598  and  _599
REMARK  235  A    between atoms: _598  and  _601
REMARK  236  A    between atoms: _601  and  _602
REMARK  237  A    between atoms: _608  and  _610
REMARK  238  A    between atoms: _610  and  _611
REMARK  239  A    between atoms: _610  and  _613
REMARK  240  A    between atoms: _613  and  _614
REMARK  241  A    between atoms: _617  and  _619
REMARK  242  A    between atoms: _619  and  _620
REMARK  243  A    between atoms: _619  and  _622
REMARK  244  A    between atoms: _622  and  _623
REMARK  245  A    between atoms: _625  and  _627
REMARK  246  A    between atoms: _627  and  _628
REMARK  247  A    between atoms: _627  and  _630
REMARK  248  A    between atoms: _630  and  _631
REMARK  249  A    between atoms: _636  and  _638
REMARK  250  A    between atoms: _638  and  _639
REMARK  251  A    between atoms: _638  and  _641
REMARK  252  A    between atoms: _641  and  _642
REMARK  253  A    between atoms: _647  and  _649
REMARK  254  A    between atoms: _649  and  _650
REMARK  255  A    between atoms: _649  and  _652
REMARK  256  A    between atoms: _652  and  _653
REMARK  257  A    between atoms: _656  and  _658
REMARK  258  A    between atoms: _658  and  _659
REMARK  259  A    between atoms: _662  and  _664
REMARK  260  A    between atoms: _664  and  _665
REMARK  261  A    between atoms: _664  and  _667
REMARK  262  A    between atoms: _667  and  _668
REMARK  263  A    between atoms: _673  and  _674
REMARK  264  A    between atoms: _676  and  _678
REMARK  265  A    between atoms: _678  and  _679
REMARK  266  A    between atoms: _678  and  _681
REMARK  267  A    between atoms: _681  and  _682
REMARK  268  A    between atoms: _687  and  _688
REMARK  269  A    between atoms: _690  and  _692
REMARK  270  A    between atoms: _692  and  _693
REMARK  271  A    between atoms: _692  and  _695
REMARK  272  A    between atoms: _698  and  _700
REMARK  273  A    between atoms: _700  and  _701
REMARK  274  A    between atoms: _700  and  _703
REMARK  275  A    between atoms: _703  and  _704
REMARK  276  A    between atoms: _709  and  _711
REMARK  277  A    between atoms: _711  and  _712
REMARK  278  A    between atoms: _715  and  _717
REMARK  279  A    between atoms: _717  and  _718
REMARK  280  A    between atoms: _717  and  _720
REMARK  281  A    between atoms: _720  and  _721
REMARK  282  A    between atoms: _721  and  _722
REMARK  283  A    between atoms: _722  and  _723
REMARK  284  A    between atoms: _732  and  _734
REMARK  285  A    between atoms: _734  and  _735
REMARK  286  A    between atoms: _734  and  _737
REMARK  287  A    between atoms: _737  and  _738
REMARK  288  A    between atoms: _741  and  _743
REMARK  289  A    between atoms: _743  and  _744
REMARK  290  A    between atoms: _743  and  _746
REMARK  291  A    between atoms: _746  and  _747
REMARK  292  A    between atoms: _750  and  _752
REMARK  293  A    between atoms: _752  and  _753
REMARK  294  A    between atoms: _752  and  _755
REMARK  295  A    between atoms: _755  and  _756
REMARK  296  A    between atoms: _797  and  _800
REMARK                            x       y       z     vdW  Elec       q    Type
REMARK                         _______ _______ _______ _____ _____    ______ ____
ROOT
ATOM      1  CG  TYR A   1      -7.469  13.761  22.442  0.00  0.00    -0.020 A 
ATOM      2  CD2 TYR A   1      -8.229  14.880  22.760  0.00  0.00    -0.001 A 
ATOM      3  CE2 TYR A   1      -8.463  15.897  21.844  0.00  0.00    +0.036 A 
ATOM      4  CZ  TYR A   1      -7.929  15.792  20.586  0.00  0.00    +0.134 A 
ATOM      5  CE1 TYR A   1      -7.179  14.694  20.225  0.00  0.00    +0.036 A 
ATOM      6  CD1 TYR A   1      -6.963  13.688  21.155  0.00  0.00    -0.001 A 
ENDROOT
BRANCH   4   7
ATOM      7  OH  TYR A   1      -8.181  16.811  19.670  0.00  0.00    -0.506 OA
ATOM      8  HH  TYR A   1      -7.735  16.600  18.812  0.00  0.00    +0.292 HD
ENDBRANCH   4   7
BRANCH   1   9
ATOM      9  CB  TYR A   1      -7.300  12.670  23.474  0.00  0.00    +0.051 C 
BRANCH   9  10
ATOM     10  CA  TYR A   1      -5.967  12.488  24.189  0.00  0.00    +0.137 C 
BRANCH  10  11
ATOM     11  N   TYR A   1      -5.567  13.635  24.977  0.00  0.00    -0.239 NA
ATOM     12  H   TYR A   1      -4.943  14.359  24.568  0.00  0.00    +0.142 HD
ENDBRANCH  10  11
BRANCH  10  13
ATOM     13  C   TYR A   1      -4.912  12.136  23.136  0.00  0.00    +0.224 C 
ATOM     14  O   TYR A   1      -4.166  13.030  22.755  0.00  0.00    -0.287 OA
ENDBRANCH  10  13
ENDBRANCH   9  10
ENDBRANCH   1   9
TORSDOF 5
REMARK  Name = ../refined-set-2016/1b1h/1b1h_pocket.pdb
REMARK  296 active torsions:
REMARK  status: ('A' for Active; 'I' for Inactive)
REMARK    1  A    between atoms: _1  and  _3
REMARK    2  A    between atoms: _3  and  _4
REMARK    3  A    between atoms: _3  and  _6
REMARK    4  A    between atoms: _6  and  _7
REMARK    5  A    between atoms: _12  and  _14
REMARK    6  A    between atoms: _14  and  _15
REMARK    7  A    between atoms: _17  and  _19
REMARK    8  A    between atoms: _19  and  _20
REMARK    9  A    between atoms: _19  and  _22
REMARK   10  A    between atoms: _22  and  _23
REMARK   11  A    between atoms: _25  and  _27
REMARK   12  A    between atoms: _27  and  _28
REMARK   13  A    between atoms: _27  and  _30
REMARK   14  A    between atoms: _30  and  _31
REMARK   15  A    between atoms: _31  and  _32
REMARK   16  A    between atoms: _37  and  _39
REMARK   17  A    between atoms: _39  and  _40
REMARK   18  A    between atoms: _39  and  _42
REMARK   19  A    between atoms: _42  and  _43
REMARK   20  A    between atoms: _46  and  _48
REMARK   21  A    between atoms: _48  and  _49
REMARK   22  A    between atoms: _48  and  _51
REMARK   23  A    between atoms: _51  and  _52
REMARK   24  A    between atoms: _52  and  _53
REMARK   25  A    between atoms: _56  and  _58
REMARK   26  A    between atoms: _58  and  _59
REMARK   27  A    between atoms: _61  and  _63
REMARK   28  A    between atoms: _63  and  _64
REMARK   29  A    between atoms: _63  and  _66
REMARK   30  A    between atoms: _70  and  _71
REMARK   31  A    between atoms: _76  and  _78
REMARK   32  A    between atoms: _78  and  _79
REMARK   33  A    between atoms: _78  and  _81
REMARK   34  A    between atoms: _81  and  _82
REMARK   35  A    between atoms: _82  and  _83
REMARK   36  A    between atoms: _86  and  _88
REMARK   37  A    between atoms: _88  and  _89
REMARK   38  A    between atoms: _88  and  _91
REMARK   39  A    between atoms: _91  and  _92
REMARK   40  A    between atoms: _94  and  _96
REMARK   41  A    between atoms: _96  and  _97
REMARK   42  A    between atoms: _96  and  _99
REMARK   43  A    between atoms: _99  and  _100
REMARK   44  A    between atoms: _105  and  _107
REMARK   45  A    between atoms: _107  and  _108
REMARK   46  A    between atoms: _107  and  _110
REMARK   47  A    between atoms: _110  and  _111
REMARK   48  A    between atoms: _111  and  _112
REMARK   49  A    between atoms: _112  and  _113
REMARK   50  A    between atoms: _123  and  _124
REMARK   51  A    between atoms: _129  and  _131
REMARK   52  A    between atoms: _131  and  _132
REMARK   53  A    between atoms: _131  and  _134
REMARK   54  A    between atoms: _134  and  _135
REMARK   55  A    between atoms: _140  and  _141
REMARK   56  A    between atoms: _143  and  _145
REMARK   57  A    between atoms: _145  and  _146
REMARK   58  A    between atoms: _145  and  _148
REMARK   59  A    between atoms: _148  and  _149
REMARK   60  A    between atoms: _154  and  _155
REMARK   61  A    between atoms: _157  and  _159
REMARK   62  A    between atoms: _159  and  _160
REMARK   63  A    between atoms: _159  and  _162
REMARK   64  A    between atoms: _165  and  _167
REMARK   65  A    between atoms: _167  and  _168
REMARK   66  A    between atoms: _167  and  _170
REMARK   67  A    between atoms: _170  and  _171
REMARK   68  A    between atoms: _177  and  _178
REMARK   69  A    between atoms: _183  and  _185
REMARK   70  A    between atoms: _185  and  _186
REMARK   71  A    between atoms: _185  and  _188
REMARK   72  A    between atoms: _188  and  _189
REMARK   73  A    between atoms: _191  and  _193
REMARK   74  A    between atoms: _193  and  _194
REMARK   75  A    between atoms: _193  and  _196
REMARK   76  A    between atoms: _196  and  _197
REMARK   77  A    between atoms: _197  and  _198
REMARK   78  A    between atoms: _201  and  _203
REMARK   79  A    between atoms: _203  and  _204
REMARK   80  A    between atoms: _203  and  _206
REMARK   81  A    between atoms: _206  and  _207
REMARK   82  A    between atoms: _212  and  _213
REMARK   83  A    between atoms: _215  and  _217
REMARK   84  A    between atoms: _217  and  _218
REMARK   85  A    between atoms: _217  and  _220
REMARK   86  A    between atoms: _220  and  _221
REMARK   87  A    between atoms: _226  and  _228
REMARK   88  A    between atoms: _228  and  _229
REMARK   89  A    between atoms: _228  and  _231
REMARK   90  A    between atoms: _231  and  _232
REMARK   91  A    between atoms: _237  and  _239
REMARK   92  A    between atoms: _239  and  _240
REMARK   93  A    between atoms: _239  and  _242
REMARK   94  A    between atoms: _242  and  _243
REMARK   95  A    between atoms: _243  and  _244
REMARK   96  A    between atoms: _246  and  _248
REMARK   97  A    between atoms: _248  and  _249
REMARK   98  A    between atoms: _248  and  _251
REMARK   99  A    between atoms: _251  and  _252
REMARK  100  A    between atoms: _257  and  _258
REMARK  101  A    between atoms: _260  and  _262
REMARK  102  A    between atoms: _262  and  _263
REMARK  103  A    between atoms: _262  and  _265
REMARK  104  A    between atoms: _265  and  _266
REMARK  105  A    between atoms: _269  and  _271
REMARK  106  A    between atoms: _271  and  _272
REMARK  107  A    between atoms: _271  and  _274
REMARK  108  A    between atoms: _274  and  _275
REMARK  109  A    between atoms: _275  and  _558
REMARK  110  A    between atoms: _276  and  _278
REMARK  111  A    between atoms: _278  and  _279
REMARK  112  A    between atoms: _278  and  _281
REMARK  113  A    between atoms: _281  and  _282
REMARK  114  A    between atoms: _285  and  _287
REMARK  115  A    between atoms: _287  and  _288
REMARK  116  A    between atoms: _287  and  _290
REMARK  117  A    between atoms: _290  and  _291
REMARK  118  A    between atoms: _296  and  _297
REMARK  119  A    between atoms: _299  and  _301
REMARK  120  A    between atoms: _301  and  _302
REMARK  121  A    between atoms: _301  and  _304
REMARK  122  A    between atoms: _304  and  _305
REMARK  123  A    between atoms: _310  and  _311
REMARK  124  A    between atoms: _313  and  _315
REMARK  125  A    between atoms: _315  and  _316
REMARK  126  A    between atoms: _315  and  _318
REMARK  127  A    between atoms: _318  and  _319
REMARK  128  A    between atoms: _319  and  _320
REMARK  129  A    between atoms: _323  and  _325
REMARK  130  A    between atoms: _325  and  _326
REMARK  131  A    between atoms: _325  and  _328
REMARK  132  A    between atoms: _328  and  _329
REMARK  133  A    between atoms: _334  and  _335
REMARK  134  A    between atoms: _337  and  _339
REMARK  135  A    between atoms: _339  and  _340
REMARK  136  A    between atoms: _339  and  _342
REMARK  137  A    between atoms: _342  and  _343
REMARK  138  A    between atoms: _348  and  _350
REMARK  139  A    between atoms: _350  and  _351
REMARK  140  A    between atoms: _350  and  _353
REMARK  141  A    between atoms: _353  and  _354
REMARK  142  A    between atoms: _357  and  _359
REMARK  143  A    between atoms: _359  and  _360
REMARK  144  A    between atoms: _359  and  _362
REMARK  145  A    between atoms: _362  and  _363
REMARK  146  A    between atoms: _368  and  _370
REMARK  147  A    between atoms: _370  and  _371
REMARK  148  A    between atoms: _370  and  _373
REMARK  149  A    between atoms: _373  and  _374
REMARK  150  A    between atoms: _384  and  _386
REMARK  151  A    between atoms: _386  and  _387
REMARK  152  A    between atoms: _386  and  _389
REMARK  153  A    between atoms: _389  and  _390
REMARK  154  A    between atoms: _390  and  _391
REMARK  155  A    between atoms: _391  and  _392
REMARK  156  A    between atoms: _392  and  _393
REMARK  157  A    between atoms: _397  and  _399
REMARK  158  A    between atoms: _399  and  _400
REMARK  159  A    between atoms: _399  and  _402
REMARK  160  A    between atoms: _402  and  _403
REMARK  161  A    between atoms: _406  and  _408
REMARK  162  A    between atoms: _408  and  _409
REMARK  163  A    between atoms: _408  and  _411
REMARK  164  A    between atoms: _411  and  _412
REMARK  165  A    between atoms: _418  and  _420
REMARK  166  A    between atoms: _420  and  _421
REMARK  167  A    between atoms: _420  and  _423
REMARK  168  A    between atoms: _423  and  _424
REMARK  169  A    between atoms: _427  and  _429
REMARK  170  A    between atoms: _429  and  _430
REMARK  171  A    between atoms: _429  and  _432
REMARK  172  A    between atoms: _432  and  _433
REMARK  173  A    between atoms: _436  and  _438
REMARK  174  A    between atoms: _438  and  _439
REMARK  175  A    between atoms: _438  and  _441
REMARK  176  A    between atoms: _441  and  _442
REMARK  177  A    between atoms: _445  and  _447
REMARK  178  A    between atoms: _447  and  _448
REMARK  179  A    between atoms: _447  and  _450
REMARK  180  A    between atoms: _450  and  _451
REMARK  181  A    between atoms: _451  and  _452
REMARK  182  A    between atoms: _452  and  _453
REMARK  183  A    between atoms: _462  and  _464
REMARK  184  A    between atoms: _464  and  _465
REMARK  185  A    between atoms: _464  and  _467
REMARK  186  A    between atoms: _467  and  _468
REMARK  187  A    between atoms: _473  and  _475
REMARK  188  A    between atoms: _475  and  _476
REMARK  189  A    between atoms: _475  and  _478
REMARK  190  A    between atoms: _478  and  _479
REMARK  191  A    between atoms: _479  and  _480
REMARK  192  A    between atoms: _485  and  _487
REMARK  193  A    between atoms: _487  and  _488
REMARK  194  A    between atoms: _490  and  _492
REMARK  195  A    between atoms: _492  and  _493
REMARK  196  A    between atoms: _492  and  _495
REMARK  197  A    between atoms: _495  and  _496
REMARK  198  A    between atoms: _502  and  _504
REMARK  199  A    between atoms: _504  and  _505
REMARK  200  A    between atoms: _508  and  _510
REMARK  201  A    between atoms: _510  and  _511
REMARK  202  A    between atoms: _510  and  _513
REMARK  203  A    between atoms: _513  and  _514
REMARK  204  A    between atoms: _514  and  _515
REMARK  205  A    between atoms: _515  and  _516
REMARK  206  A    between atoms: _525  and  _527
REMARK  207  A    between atoms: _527  and  _528
REMARK  208  A    between atoms: _531  and  _533
REMARK  209  A    between atoms: _533  and  _534
REMARK  210  A    between atoms: _536  and  _538
REMARK  211  A    between atoms: _538  and  _539
REMARK  212  A    between atoms: _538  and  _541
REMARK  213  A    between atoms: _541  and  _542
REMARK  214  A    between atoms: _552  and  _554
REMARK  215  A    between atoms: _554  and  _555
REMARK  216  A    between atoms: _554  and  _557
REMARK  217  A    between atoms: _557  and  _558
REMARK  218  A    between atoms: _559  and  _561
REMARK  219  A    between atoms: _561  and  _562
REMARK  220  A    between atoms: _565  and  _567
REMARK  221  A    between atoms: _567  and  _568
REMARK  222  A    between atoms: _567  and  _570
REMARK  223  A    between atoms: _570  and  _571
REMARK  224  A    between atoms: _574  and  _576
REMARK  225  A    between atoms: _576  and  _577
REMARK  226  A    between atoms: _576  and  _579
REMARK  227  A    between atoms: _579  and  _580
REMARK  228  A    between atoms: _585  and  _586
REMARK  229  A    between atoms: _588  and  _590
REMARK  230  A    between atoms: _590  and  _591
REMARK  231  A    between atoms: _590  and  _593
REMARK  232  A    between atoms: _593  and  _594
REMARK  233  A    between atoms: _596  and  _598
REMARK  234  A    between atoms: _598  and  _599
REMARK  235  A    between atoms: _598  and  _601
REMARK  236  A    between atoms: _601  and  _602
REMARK  237  A    between atoms: _608  and  _610
REMARK  238  A    between atoms: _610  and  _611
REMARK  239  A    between atoms: _610  and  _613
REMARK  240  A    between atoms: _613  and  _614
REMARK  241  A    between atoms: _617  and  _619
REMARK  242  A    between atoms: _619  and  _620
REMARK  243  A    between atoms: _619  and  _622
REMARK  244  A    between atoms: _622  and  _623
REMARK  245  A    between atoms: _625  and  _627
REMARK  246  A    between atoms: _627  and  _628
REMARK  247  A    between atoms: _627  and  _630
REMARK  248  A    between atoms: _630  and  _631
REMARK  249  A    between atoms: _636  and  _638
REMARK  250  A    between atoms: _638  and  _639
REMARK  251  A    between atoms: _638  and  _641
REMARK  252  A    between atoms: _641  and  _642
REMARK  253  A    between atoms: _647  and  _649
REMARK  254  A    between atoms: _649  and  _650
REMARK  255  A    between atoms: _649  and  _652
REMARK  256  A    between atoms: _652  and  _653
REMARK  257  A    between atoms: _656  and  _658
REMARK  258  A    between atoms: _658  and  _659
REMARK  259  A    between atoms: _662  and  _664
REMARK  260  A    between atoms: _664  and  _665
REMARK  261  A    between atoms: _664  and  _667
REMARK  262  A    between atoms: _667  and  _668
REMARK  263  A    between atoms: _673  and  _674
REMARK  264  A    between atoms: _676  and  _678
REMARK  265  A    between atoms: _678  and  _679
REMARK  266  A    between atoms: _678  and  _681
REMARK  267  A    between atoms: _681  and  _682
REMARK  268  A    between atoms: _687  and  _688
REMARK  269  A    between atoms: _690  and  _692
REMARK  270  A    between atoms: _692  and  _693
REMARK  271  A    between atoms: _692  and  _695
REMARK  272  A    between atoms: _698  and  _700
REMARK  273  A    between atoms: _700  and  _701
REMARK  274  A    between atoms: _700  and  _703
REMARK  275  A    between atoms: _703  and  _704
REMARK  276  A    between atoms: _709  and  _711
REMARK  277  A    between atoms: _711  and  _712
REMARK  278  A    between atoms: _715  and  _717
REMARK  279  A    between atoms: _717  and  _718
REMARK  280  A    between atoms: _717  and  _720
REMARK  281  A    between atoms: _720  and  _721
REMARK  282  A    between atoms: _721  and  _722
REMARK  283  A    between atoms: _722  and  _723
REMARK  284  A    between atoms: _732  and  _734
REMARK  285  A    between atoms: _734  and  _735
REMARK  286  A    between atoms: _734  and  _737
REMARK  287  A    between atoms: _737  and  _738
REMARK  288  A    between atoms: _741  and  _743
REMARK  289  A    between atoms: _743  and  _744
REMARK  290  A    between atoms: _743  and  _746
REMARK  291  A    between atoms: _746  and  _747
REMARK  292  A    between atoms: _750  and  _752
REMARK  293  A    between atoms: _752  and  _753
REMARK  294  A    between atoms: _752  and  _755
REMARK  295  A    between atoms: _755  and  _756
REMARK  296  A    between atoms: _797  and  _800
REMARK                            x       y       z     vdW  Elec       q    Type
REMARK                         _______ _______ _______ _____ _____    ______ ____
ROOT
ATOM      1  CA  ASN A   3      -6.010  11.246  11.862  0.00  0.00    +0.158 C 
ENDROOT
BRANCH   1   4
ATOM      2  C   VAL A   2      -6.568  10.929  14.199  0.00  0.00    +0.241 C 
ATOM      3  O   VAL A   2      -6.718  12.141  14.384  0.00  0.00    -0.273 OA
ATOM      4  N   ASN A   3      -6.215  10.417  13.050  0.00  0.00    -0.297 N 
ATOM      5  H   ASN A   3      -6.075   9.389  12.978  0.00  0.00    +0.150 HD
BRANCH   2   6
ATOM      6  CA  VAL A   2      -6.775   9.954  15.378  0.00  0.00    +0.148 C 
BRANCH   6   9
ATOM      7  C   TYR A   1      -5.469  10.621  17.296  0.00  0.00    +0.239 C 
ATOM      8  O   TYR A   1      -4.661   9.708  17.139  0.00  0.00    -0.274 OA
ATOM      9  N   VAL A   2      -6.564  10.804  16.545  0.00  0.00    -0.297 N 
ATOM     10  H   VAL A   2      -7.254  11.542  16.791  0.00  0.00    +0.150 HD
BRANCH   7  11
ATOM     11  CA  TYR A   1      -5.164  11.823  18.188  0.00  0.00    +0.149 C 
BRANCH  11  12
ATOM     12  N   TYR A   1      -4.367  11.522  19.359  0.00  0.00    -0.238 NA
ATOM     13  H   TYR A   1      -3.397  11.885  19.453  0.00  0.00    +0.142 HD
ENDBRANCH  11  12
BRANCH  11  14
ATOM     14  CB  TYR A   1      -4.387  12.691  17.189  0.00  0.00    +0.053 C 
BRANCH  14  15
ATOM     15  CG  TYR A   1      -4.143  14.147  17.420  0.00  0.00    -0.020 A 
ATOM     16  CD2 TYR A   1      -3.348  14.577  18.467  0.00  0.00    -0.001 A 
ATOM     17  CE2 TYR A   1      -3.078  15.926  18.650  0.00  0.00    +0.036 A 
ATOM     18  CZ  TYR A   1      -3.649  16.847  17.787  0.00  0.00    +0.134 A 
ATOM     19  CE1 TYR A   1      -4.464  16.457  16.751  0.00  0.00    +0.036 A 
ATOM     20  CD1 TYR A   1      -4.704  15.104  16.579  0.00  0.00    -0.001 A 
BRANCH  18  21
ATOM     21  OH  TYR A   1      -3.362  18.168  18.023  0.00  0.00    -0.506 OA
ATOM     22  HH  TYR A   1      -2.915  18.554  17.229  0.00  0.00    +0.292 HD
ENDBRANCH  18  21
ENDBRANCH  14  15
ENDBRANCH  11  14
ENDBRANCH   7  11
ENDBRANCH   6   9
BRANCH   6  23
ATOM     23  CB  VAL A   2      -8.128   9.270  15.190  0.00  0.00    +0.027 C 
ATOM     24  CG2 VAL A   2      -8.236   8.156  16.217  0.00  0.00    +0.002 C 
ATOM     25  CG1 VAL A   2      -9.257  10.278  15.280  0.00  0.00    +0.002 C 
ENDBRANCH   6  23
ENDBRANCH   2   6
ENDBRANCH   1   4
BRANCH   1  26
ATOM     26  C   ASN A   3      -7.333  11.227  11.084  0.00  0.00    +0.241 C 
ATOM     27  N   ALA A   4      -8.136  12.264  11.271  0.00  0.00    -0.297 N 
ATOM     28  H   ALA A   4      -7.819  13.044  11.881  0.00  0.00    +0.150 HD
ATOM     29  O   ASN A   3      -7.568  10.317  10.317  0.00  0.00    -0.273 OA
BRANCH  27  30
ATOM     30  CA  ALA A   4      -9.449  12.345  10.648  0.00  0.00    +0.149 C 
ATOM     31  CB  ALA A   4     -10.499  12.537  11.742  0.00  0.00    +0.031 C 
BRANCH  30  32
ATOM     32  C   ALA A   4      -9.495  13.508   9.668  0.00  0.00    +0.241 C 
ATOM     33  O   ALA A   4      -9.117  14.626  10.019  0.00  0.00    -0.273 OA
ATOM     34  N   ARG A   5      -9.876  13.232   8.430  0.00  0.00    -0.298 N 
ATOM     35  H   ARG A   5     -10.150  12.259   8.188  0.00  0.00    +0.150 HD
BRANCH  34  36
ATOM     36  CA  ARG A   5      -9.919  14.254   7.407  0.00  0.00    +0.137 C 
BRANCH  36  37
ATOM     37  C   ARG A   5     -10.921  13.819   6.336  0.00  0.00    +0.227 C 
ATOM     38  O   ARG A   5     -11.329  12.640   6.308  0.00  0.00    -0.286 OA
ENDBRANCH  36  37
BRANCH  36  39
ATOM     39  CB  ARG A   5      -8.543  14.431   6.748  0.00  0.00    +0.031 C 
BRANCH  39  40
ATOM     40  CG  ARG A   5      -7.913  13.133   6.297  0.00  0.00    +0.045 C 
BRANCH  40  41
ATOM     41  CD  ARG A   5      -6.855  13.293   5.228  0.00  0.00    +0.174 C 
BRANCH  41  42
ATOM     42  NE  ARG A   5      -5.929  14.407   5.349  0.00  0.00    -0.265 N 
ATOM     43  CZ  ARG A   5      -4.677  14.331   5.782  0.00  0.00    +0.342 C 
ATOM     44  NH2 ARG A   5      -4.175  13.173   6.149  0.00  0.00    -0.292 N 
ATOM     45 HH21 ARG A   5      -3.193  13.116   6.488  0.00  0.00    +0.255 HD
ATOM     46 HH22 ARG A   5      -4.759  12.314   6.100  0.00  0.00    +0.255 HD
ATOM     47  NH1 ARG A   5      -3.900  15.398   5.842  0.00  0.00    -0.292 N 
ATOM     48 HH11 ARG A   5      -2.922  15.311   6.185  0.00  0.00    +0.255 HD
ATOM     49 HH12 ARG A   5      -4.266  16.325   5.546  0.00  0.00    +0.255 HD
ATOM     50  HE  ARG A   5      -6.279  15.346   5.072  0.00  0.00    +0.259 HD
ENDBRANCH  41  42
ENDBRANCH  40  41
ENDBRANCH  39  40
ENDBRANCH  36  39
ENDBRANCH  34  36
ENDBRANCH  30  32
ENDBRANCH  27  30
ENDBRANCH   1  26
BRANCH   1  51
ATOM     51  CB  ASN A   3      -4.876  10.681  11.023  0.00  0.00    +0.114 C 
BRANCH  51  52
ATOM     52  CG  ASN A   3      -4.561  11.524   9.798  0.00  0.00    +0.222 C 
ATOM     53  OD1 ASN A   3      -5.235  12.512   9.523  0.00  0.00    -0.275 OA
ATOM     54  ND2 ASN A   3      -3.542  11.145   9.055  0.00  0.00    -0.329 N 
ATOM     55 HD21 ASN A   3      -2.992  10.302   9.317  0.00  0.00    +0.145 HD
ATOM     56 HD22 ASN A   3      -3.287  11.688   8.206  0.00  0.00    +0.145 HD
ENDBRANCH  51  52
ENDBRANCH   1  51
TORSDOF 20
REMARK  Name = ../refined-set-2016/1b1h/1b1h_pocket.pdb
REMARK  296 active torsions:
REMARK  status: ('A' for Active; 'I' for Inactive)
REMARK    1  A    between atoms: _1  and  _3
REMARK    2  A    between atoms: _3  and  _4
REMARK    3  A    between atoms: _3  and  _6
REMARK    4  A    between atoms: _6  and  _7
REMARK    5  A    between atoms: _12  and  _14
REMARK    6  A    between atoms: _14  and  _15
REMARK    7  A    between atoms: _17  and  _19
REMARK    8  A    between atoms: _19  and  _20
REMARK    9  A    between atoms: _19  and  _22
REMARK   10  A    between atoms: _22  and  _23
REMARK   11  A    between atoms: _25  and  _27
REMARK   12  A    between atoms: _27  and  _28
REMARK   13  A    between atoms: _27  and  _30
REMARK   14  A    between atoms: _30  and  _31
REMARK   15  A    between atoms: _31  and  _32
REMARK   16  A    between atoms: _37  and  _39
REMARK   17  A    between atoms: _39  and  _40
REMARK   18  A    between atoms: _39  and  _42
REMARK   19  A    between atoms: _42  and  _43
REMARK   20  A    between atoms: _46  and  _48
REMARK   21  A    between atoms: _48  and  _49
REMARK   22  A    between atoms: _48  and  _51
REMARK   23  A    between atoms: _51  and  _52
REMARK   24  A    between atoms: _52  and  _53
REMARK   25  A    between atoms: _56  and  _58
REMARK   26  A    between atoms: _58  and  _59
REMARK   27  A    between atoms: _61  and  _63
REMARK   28  A    between atoms: _63  and  _64
REMARK   29  A    between atoms: _63  and  _66
REMARK   30  A    between atoms: _70  and  _71
REMARK   31  A    between atoms: _76  and  _78
REMARK   32  A    between atoms: _78  and  _79
REMARK   33  A    between atoms: _78  and  _81
REMARK   34  A    between atoms: _81  and  _82
REMARK   35  A    between atoms: _82  and  _83
REMARK   36  A    between atoms: _86  and  _88
REMARK   37  A    between atoms: _88  and  _89
REMARK   38  A    between atoms: _88  and  _91
REMARK   39  A    between atoms: _91  and  _92
REMARK   40  A    between atoms: _94  and  _96
REMARK   41  A    between atoms: _96  and  _97
REMARK   42  A    between atoms: _96  and  _99
REMARK   43  A    between atoms: _99  and  _100
REMARK   44  A    between atoms: _105  and  _107
REMARK   45  A    between atoms: _107  and  _108
REMARK   46  A    between atoms: _107  and  _110
REMARK   47  A    between atoms: _110  and  _111
REMARK   48  A    between atoms: _111  and  _112
REMARK   49  A    between atoms: _112  and  _113
REMARK   50  A    between atoms: _123  and  _124
REMARK   51  A    between atoms: _129  and  _131
REMARK   52  A    between atoms: _131  and  _132
REMARK   53  A    between atoms: _131  and  _134
REMARK   54  A    between atoms: _134  and  _135
REMARK   55  A    between atoms: _140  and  _141
REMARK   56  A    between atoms: _143  and  _145
REMARK   57  A    between atoms: _145  and  _146
REMARK   58  A    between atoms: _145  and  _148
REMARK   59  A    between atoms: _148  and  _149
REMARK   60  A    between atoms: _154  and  _155
REMARK   61  A    between atoms: _157  and  _159
REMARK   62  A    between atoms: _159  and  _160
REMARK   63  A    between atoms: _159  and  _162
REMARK   64  A    between atoms: _165  and  _167
REMARK   65  A    between atoms: _167  and  _168
REMARK   66  A    between atoms: _167  and  _170
REMARK   67  A    between atoms: _170  and  _171
REMARK   68  A    between atoms: _177  and  _178
REMARK   69  A    between atoms: _183  and  _185
REMARK   70  A    between atoms: _185  and  _186
REMARK   71  A    between atoms: _185  and  _188
REMARK   72  A    between atoms: _188  and  _189
REMARK   73  A    between atoms: _191  and  _193
REMARK   74  A    between atoms: _193  and  _194
REMARK   75  A    between atoms: _193  and  _196
REMARK   76  A    between atoms: _196  and  _197
REMARK   77  A    between atoms: _197  and  _198
REMARK   78  A    between atoms: _201  and  _203
REMARK   79  A    between atoms: _203  and  _204
REMARK   80  A    between atoms: _203  and  _206
REMARK   81  A    between atoms: _206  and  _207
REMARK   82  A    between atoms: _212  and  _213
REMARK   83  A    between atoms: _215  and  _217
REMARK   84  A    between atoms: _217  and  _218
REMARK   85  A    between atoms: _217  and  _220
REMARK   86  A    between atoms: _220  and  _221
REMARK   87  A    between atoms: _226  and  _228
REMARK   88  A    between atoms: _228  and  _229
REMARK   89  A    between atoms: _228  and  _231
REMARK   90  A    between atoms: _231  and  _232
REMARK   91  A    between atoms: _237  and  _239
REMARK   92  A    between atoms: _239  and  _240
REMARK   93  A    between atoms: _239  and  _242
REMARK   94  A    between atoms: _242  and  _243
REMARK   95  A    between atoms: _243  and  _244
REMARK   96  A    between atoms: _246  and  _248
REMARK   97  A    between atoms: _248  and  _249
REMARK   98  A    between atoms: _248  and  _251
REMARK   99  A    between atoms: _251  and  _252
REMARK  100  A    between atoms: _257  and  _258
REMARK  101  A    between atoms: _260  and  _262
REMARK  102  A    between atoms: _262  and  _263
REMARK  103  A    between atoms: _262  and  _265
REMARK  104  A    between atoms: _265  and  _266
REMARK  105  A    between atoms: _269  and  _271
REMARK  106  A    between atoms: _271  and  _272
REMARK  107  A    between atoms: _271  and  _274
REMARK  108  A    between atoms: _274  and  _275
REMARK  109  A    between atoms: _275  and  _558
REMARK  110  A    between atoms: _276  and  _278
REMARK  111  A    between atoms: _278  and  _279
REMARK  112  A    between atoms: _278  and  _281
REMARK  113  A    between atoms: _281  and  _282
REMARK  114  A    between atoms: _285  and  _287
REMARK  115  A    between atoms: _287  and  _288
REMARK  116  A    between atoms: _287  and  _290
REMARK  117  A    between atoms: _290  and  _291
REMARK  118  A    between atoms: _296  and  _297
REMARK  119  A    between atoms: _299  and  _301
REMARK  120  A    between atoms: _301  and  _302
REMARK  121  A    between atoms: _301  and  _304
REMARK  122  A    between atoms: _304  and  _305
REMARK  123  A    between atoms: _310  and  _311
REMARK  124  A    between atoms: _313  and  _315
REMARK  125  A    between atoms: _315  and  _316
REMARK  126  A    between atoms: _315  and  _318
REMARK  127  A    between atoms: _318  and  _319
REMARK  128  A    between atoms: _319  and  _320
REMARK  129  A    between atoms: _323  and  _325
REMARK  130  A    between atoms: _325  and  _326
REMARK  131  A    between atoms: _325  and  _328
REMARK  132  A    between atoms: _328  and  _329
REMARK  133  A    between atoms: _334  and  _335
REMARK  134  A    between atoms: _337  and  _339
REMARK  135  A    between atoms: _339  and  _340
REMARK  136  A    between atoms: _339  and  _342
REMARK  137  A    between atoms: _342  and  _343
REMARK  138  A    between atoms: _348  and  _350
REMARK  139  A    between atoms: _350  and  _351
REMARK  140  A    between atoms: _350  and  _353
REMARK  141  A    between atoms: _353  and  _354
REMARK  142  A    between atoms: _357  and  _359
REMARK  143  A    between atoms: _359  and  _360
REMARK  144  A    between atoms: _359  and  _362
REMARK  145  A    between atoms: _362  and  _363
REMARK  146  A    between atoms: _368  and  _370
REMARK  147  A    between atoms: _370  and  _371
REMARK  148  A    between atoms: _370  and  _373
REMARK  149  A    between atoms: _373  and  _374
REMARK  150  A    between atoms: _384  and  _386
REMARK  151  A    between atoms: _386  and  _387
REMARK  152  A    between atoms: _386  and  _389
REMARK  153  A    between atoms: _389  and  _390
REMARK  154  A    between atoms: _390  and  _391
REMARK  155  A    between atoms: _391  and  _392
REMARK  156  A    between atoms: _392  and  _393
REMARK  157  A    between atoms: _397  and  _399
REMARK  158  A    between atoms: _399  and  _400
REMARK  159  A    between atoms: _399  and  _402
REMARK  160  A    between atoms: _402  and  _403
REMARK  161  A    between atoms: _406  and  _408
REMARK  162  A    between atoms: _408  and  _409
REMARK  163  A    between atoms: _408  and  _411
REMARK  164  A    between atoms: _411  and  _412
REMARK  165  A    between atoms: _418  and  _420
REMARK  166  A    between atoms: _420  and  _421
REMARK  167  A    between atoms: _420  and  _423
REMARK  168  A    between atoms: _423  and  _424
REMARK  169  A    between atoms: _427  and  _429
REMARK  170  A    between atoms: _429  and  _430
REMARK  171  A    between atoms: _429  and  _432
REMARK  172  A    between atoms: _432  and  _433
REMARK  173  A    between atoms: _436  and  _438
REMARK  174  A    between atoms: _438  and  _439
REMARK  175  A    between atoms: _438  and  _441
REMARK  176  A    between atoms: _441  and  _442
REMARK  177  A    between atoms: _445  and  _447
REMARK  178  A    between atoms: _447  and  _448
REMARK  179  A    between atoms: _447  and  _450
REMARK  180  A    between atoms: _450  and  _451
REMARK  181  A    between atoms: _451  and  _452
REMARK  182  A    between atoms: _452  and  _453
REMARK  183  A    between atoms: _462  and  _464
REMARK  184  A    between atoms: _464  and  _465
REMARK  185  A    between atoms: _464  and  _467
REMARK  186  A    between atoms: _467  and  _468
REMARK  187  A    between atoms: _473  and  _475
REMARK  188  A    between atoms: _475  and  _476
REMARK  189  A    between atoms: _475  and  _478
REMARK  190  A    between atoms: _478  and  _479
REMARK  191  A    between atoms: _479  and  _480
REMARK  192  A    between atoms: _485  and  _487
REMARK  193  A    between atoms: _487  and  _488
REMARK  194  A    between atoms: _490  and  _492
REMARK  195  A    between atoms: _492  and  _493
REMARK  196  A    between atoms: _492  and  _495
REMARK  197  A    between atoms: _495  and  _496
REMARK  198  A    between atoms: _502  and  _504
REMARK  199  A    between atoms: _504  and  _505
REMARK  200  A    between atoms: _508  and  _510
REMARK  201  A    between atoms: _510  and  _511
REMARK  202  A    between atoms: _510  and  _513
REMARK  203  A    between atoms: _513  and  _514
REMARK  204  A    between atoms: _514  and  _515
REMARK  205  A    between atoms: _515  and  _516
REMARK  206  A    between atoms: _525  and  _527
REMARK  207  A    between atoms: _527  and  _528
REMARK  208  A    between atoms: _531  and  _533
REMARK  209  A    between atoms: _533  and  _534
REMARK  210  A    between atoms: _536  and  _538
REMARK  211  A    between atoms: _538  and  _539
REMARK  212  A    between atoms: _538  and  _541
REMARK  213  A    between atoms: _541  and  _542
REMARK  214  A    between atoms: _552  and  _554
REMARK  215  A    between atoms: _554  and  _555
REMARK  216  A    between atoms: _554  and  _557
REMARK  217  A    between atoms: _557  and  _558
REMARK  218  A    between atoms: _559  and  _561
REMARK  219  A    between atoms: _561  and  _562
REMARK  220  A    between atoms: _565  and  _567
REMARK  221  A    between atoms: _567  and  _568
REMARK  222  A    between atoms: _567  and  _570
REMARK  223  A    between atoms: _570  and  _571
REMARK  224  A    between atoms: _574  and  _576
REMARK  225  A    between atoms: _576  and  _577
REMARK  226  A    between atoms: _576  and  _579
REMARK  227  A    between atoms: _579  and  _580
REMARK  228  A    between atoms: _585  and  _586
REMARK  229  A    between atoms: _588  and  _590
REMARK  230  A    between atoms: _590  and  _591
REMARK  231  A    between atoms: _590  and  _593
REMARK  232  A    between atoms: _593  and  _594
REMARK  233  A    between atoms: _596  and  _598
REMARK  234  A    between atoms: _598  and  _599
REMARK  235  A    between atoms: _598  and  _601
REMARK  236  A    between atoms: _601  and  _602
REMARK  237  A    between atoms: _608  and  _610
REMARK  238  A    between atoms: _610  and  _611
REMARK  239  A    between atoms: _610  and  _613
REMARK  240  A    between atoms: _613  and  _614
REMARK  241  A    between atoms: _617  and  _619
REMARK  242  A    between atoms: _619  and  _620
REMARK  243  A    between atoms: _619  and  _622
REMARK  244  A    between atoms: _622  and  _623
REMARK  245  A    between atoms: _625  and  _627
REMARK  246  A    between atoms: _627  and  _628
REMARK  247  A    between atoms: _627  and  _630
REMARK  248  A    between atoms: _630  and  _631
REMARK  249  A    between atoms: _636  and  _638
REMARK  250  A    between atoms: _638  and  _639
REMARK  251  A    between atoms: _638  and  _641
REMARK  252  A    between atoms: _641  and  _642
REMARK  253  A    between atoms: _647  and  _649
REMARK  254  A    between atoms: _649  and  _650
REMARK  255  A    between atoms: _649  and  _652
REMARK  256  A    between atoms: _652  and  _653
REMARK  257  A    between atoms: _656  and  _658
REMARK  258  A    between atoms: _658  and  _659
REMARK  259  A    between atoms: _662  and  _664
REMARK  260  A    between atoms: _664  and  _665
REMARK  261  A    between atoms: _664  and  _667
REMARK  262  A    between atoms: _667  and  _668
REMARK  263  A    between atoms: _673  and  _674
REMARK  264  A    between atoms: _676  and  _678
REMARK  265  A    between atoms: _678  and  _679
REMARK  266  A    between atoms: _678  and  _681
REMARK  267  A    between atoms: _681  and  _682
REMARK  268  A    between atoms: _687  and  _688
REMARK  269  A    between atoms: _690  and  _692
REMARK  270  A    between atoms: _692  and  _693
REMARK  271  A    between atoms: _692  and  _695
REMARK  272  A    between atoms: _698  and  _700
REMARK  273  A    between atoms: _700  and  _701
REMARK  274  A    between atoms: _700  and  _703
REMARK  275  A    between atoms: _703  and  _704
REMARK  276  A    between atoms: _709  and  _711
REMARK  277  A    between atoms: _711  and  _712
REMARK  278  A    between atoms: _715  and  _717
REMARK  279  A    between atoms: _717  and  _718
REMARK  280  A    between atoms: _717  and  _720
REMARK  281  A    between atoms: _720  and  _721
REMARK  282  A    between atoms: _721  and  _722
REMARK  283  A    between atoms: _722  and  _723
REMARK  284  A    between atoms: _732  and  _734
REMARK  285  A    between atoms: _734  and  _735
REMARK  286  A    between atoms: _734  and  _737
REMARK  287  A    between atoms: _737  and  _738
REMARK  288  A    between atoms: _741  and  _743
REMARK  289  A    between atoms: _743  and  _744
REMARK  290  A    between atoms: _743  and  _746
REMARK  291  A    between atoms: _746  and  _747
REMARK  292  A    between atoms: _750  and  _752
REMARK  293  A    between atoms: _752  and  _753
REMARK  294  A    between atoms: _752  and  _755
REMARK  295  A    between atoms: _755  and  _756
REMARK  296  A    between atoms: _797  and  _800
REMARK                            x       y       z     vdW  Elec       q    Type
REMARK                         _______ _______ _______ _____ _____    ______ ____
ROOT
ATOM      1  CA  ASP A   2       0.902  11.096   7.780  0.00  0.00    +0.160 C 
ENDROOT
BRANCH   1   4
ATOM      2  C   LEU A   1       2.412  10.766   9.677  0.00  0.00    +0.238 C 
ATOM      3  O   LEU A   1       2.715  11.956   9.746  0.00  0.00    -0.274 OA
ATOM      4  N   ASP A   2       1.578  10.277   8.780  0.00  0.00    -0.297 N 
ATOM      5  H   ASP A   2       1.393   9.254   8.786  0.00  0.00    +0.150 HD
BRANCH   2   6
ATOM      6  CA  LEU A   1       3.090   9.792  10.641  0.00  0.00    +0.145 C 
BRANCH   6   7
ATOM      7  N   LEU A   1       2.442   8.501  10.579  0.00  0.00    -0.238 NA
ATOM      8  H   LEU A   1       2.693   7.846   9.811  0.00  0.00    +0.142 HD
ENDBRANCH   6   7
BRANCH   6   9
ATOM      9  CB  LEU A   1       4.593   9.768  10.328  0.00  0.00    +0.026 C 
BRANCH   9  10
ATOM     10  CG  LEU A   1       5.484   8.824  11.139  0.00  0.00    +0.002 C 
ATOM     11  CD2 LEU A   1       5.028   8.711  12.578  0.00  0.00    +0.000 C 
ATOM     12  CD1 LEU A   1       6.946   9.246  11.067  0.00  0.00    +0.000 C 
ENDBRANCH   9  10
ENDBRANCH   6   9
ENDBRANCH   2   6
ENDBRANCH   1   4
BRANCH   1  13
ATOM     13  C   ASP A   2       1.903  11.909   6.952  0.00  0.00    +0.241 C 
ATOM     14  O   ASP A   2       1.647  13.086   6.648  0.00  0.00    -0.273 OA
ATOM     15  N   ASN A   3       2.964  11.255   6.491  0.00  0.00    -0.298 N 
ATOM     16  H   ASN A   3       3.103  10.252   6.729  0.00  0.00    +0.150 HD
BRANCH  15  17
ATOM     17  CA  ASN A   3       3.948  11.958   5.637  0.00  0.00    +0.146 C 
BRANCH  17  18
ATOM     18  C   ASN A   3       3.535  11.882   4.167  0.00  0.00    +0.227 C 
ATOM     19  O   ASN A   3       4.113  11.144   3.382  0.00  0.00    -0.286 OA
ENDBRANCH  17  18
BRANCH  17  20
ATOM     20  CB  ASN A   3       5.326  11.308   5.805  0.00  0.00    +0.112 C 
BRANCH  20  21
ATOM     21  CG  ASN A   3       6.031  11.730   7.074  0.00  0.00    +0.222 C 
ATOM     22  ND2 ASN A   3       6.706  10.821   7.756  0.00  0.00    -0.329 N 
ATOM     23 HD21 ASN A   3       7.205  11.090   8.628  0.00  0.00    +0.145 HD
ATOM     24 HD22 ASN A   3       6.739   9.837   7.420  0.00  0.00    +0.145 HD
ATOM     25  OD1 ASN A   3       5.975  12.886   7.441  0.00  0.00    -0.275 OA
ENDBRANCH  20  21
ENDBRANCH  17  20
ENDBRANCH  15  17
ENDBRANCH   1  13
BRANCH   1  26
ATOM     26  CB  ASP A   2      -0.147  12.036   8.379  0.00  0.00    +0.143 C 
BRANCH  26  27
ATOM     27  CG  ASP A   2      -1.234  12.372   7.359  0.00  0.00    +0.367 C 
ATOM     28  OD2 ASP A   2      -1.702  13.507   7.373  0.00  0.00    -0.246 OA
ATOM     29  OD1 ASP A   2      -1.584  11.531   6.513  0.00  0.00    -0.246 OA
ENDBRANCH  26  27
ENDBRANCH   1  26
TORSDOF 12
REMARK  Name = ../refined-set-2016/1b1h/1b1h_pocket.pdb
REMARK  296 active torsions:
REMARK  status: ('A' for Active; 'I' for Inactive)
REMARK    1  A    between atoms: _1  and  _3
REMARK    2  A    between atoms: _3  and  _4
REMARK    3  A    between atoms: _3  and  _6
REMARK    4  A    between atoms: _6  and  _7
REMARK    5  A    between atoms: _12  and  _14
REMARK    6  A    between atoms: _14  and  _15
REMARK    7  A    between atoms: _17  and  _19
REMARK    8  A    between atoms: _19  and  _20
REMARK    9  A    between atoms: _19  and  _22
REMARK   10  A    between atoms: _22  and  _23
REMARK   11  A    between atoms: _25  and  _27
REMARK   12  A    between atoms: _27  and  _28
REMARK   13  A    between atoms: _27  and  _30
REMARK   14  A    between atoms: _30  and  _31
REMARK   15  A    between atoms: _31  and  _32
REMARK   16  A    between atoms: _37  and  _39
REMARK   17  A    between atoms: _39  and  _40
REMARK   18  A    between atoms: _39  and  _42
REMARK   19  A    between atoms: _42  and  _43
REMARK   20  A    between atoms: _46  and  _48
REMARK   21  A    between atoms: _48  and  _49
REMARK   22  A    between atoms: _48  and  _51
REMARK   23  A    between atoms: _51  and  _52
REMARK   24  A    between atoms: _52  and  _53
REMARK   25  A    between atoms: _56  and  _58
REMARK   26  A    between atoms: _58  and  _59
REMARK   27  A    between atoms: _61  and  _63
REMARK   28  A    between atoms: _63  and  _64
REMARK   29  A    between atoms: _63  and  _66
REMARK   30  A    between atoms: _70  and  _71
REMARK   31  A    between atoms: _76  and  _78
REMARK   32  A    between atoms: _78  and  _79
REMARK   33  A    between atoms: _78  and  _81
REMARK   34  A    between atoms: _81  and  _82
REMARK   35  A    between atoms: _82  and  _83
REMARK   36  A    between atoms: _86  and  _88
REMARK   37  A    between atoms: _88  and  _89
REMARK   38  A    between atoms: _88  and  _91
REMARK   39  A    between atoms: _91  and  _92
REMARK   40  A    between atoms: _94  and  _96
REMARK   41  A    between atoms: _96  and  _97
REMARK   42  A    between atoms: _96  and  _99
REMARK   43  A    between atoms: _99  and  _100
REMARK   44  A    between atoms: _105  and  _107
REMARK   45  A    between atoms: _107  and  _108
REMARK   46  A    between atoms: _107  and  _110
REMARK   47  A    between atoms: _110  and  _111
REMARK   48  A    between atoms: _111  and  _112
REMARK   49  A    between atoms: _112  and  _113
REMARK   50  A    between atoms: _123  and  _124
REMARK   51  A    between atoms: _129  and  _131
REMARK   52  A    between atoms: _131  and  _132
REMARK   53  A    between atoms: _131  and  _134
REMARK   54  A    between atoms: _134  and  _135
REMARK   55  A    between atoms: _140  and  _141
REMARK   56  A    between atoms: _143  and  _145
REMARK   57  A    between atoms: _145  and  _146
REMARK   58  A    between atoms: _145  and  _148
REMARK   59  A    between atoms: _148  and  _149
REMARK   60  A    between atoms: _154  and  _155
REMARK   61  A    between atoms: _157  and  _159
REMARK   62  A    between atoms: _159  and  _160
REMARK   63  A    between atoms: _159  and  _162
REMARK   64  A    between atoms: _165  and  _167
REMARK   65  A    between atoms: _167  and  _168
REMARK   66  A    between atoms: _167  and  _170
REMARK   67  A    between atoms: _170  and  _171
REMARK   68  A    between atoms: _177  and  _178
REMARK   69  A    between atoms: _183  and  _185
REMARK   70  A    between atoms: _185  and  _186
REMARK   71  A    between atoms: _185  and  _188
REMARK   72  A    between atoms: _188  and  _189
REMARK   73  A    between atoms: _191  and  _193
REMARK   74  A    between atoms: _193  and  _194
REMARK   75  A    between atoms: _193  and  _196
REMARK   76  A    between atoms: _196  and  _197
REMARK   77  A    between atoms: _197  and  _198
REMARK   78  A    between atoms: _201  and  _203
REMARK   79  A    between atoms: _203  and  _204
REMARK   80  A    between atoms: _203  and  _206
REMARK   81  A    between atoms: _206  and  _207
REMARK   82  A    between atoms: _212  and  _213
REMARK   83  A    between atoms: _215  and  _217
REMARK   84  A    between atoms: _217  and  _218
REMARK   85  A    between atoms: _217  and  _220
REMARK   86  A    between atoms: _220  and  _221
REMARK   87  A    between atoms: _226  and  _228
REMARK   88  A    between atoms: _228  and  _229
REMARK   89  A    between atoms: _228  and  _231
REMARK   90  A    between atoms: _231  and  _232
REMARK   91  A    between atoms: _237  and  _239
REMARK   92  A    between atoms: _239  and  _240
REMARK   93  A    between atoms: _239  and  _242
REMARK   94  A    between atoms: _242  and  _243
REMARK   95  A    between atoms: _243  and  _244
REMARK   96  A    between atoms: _246  and  _248
REMARK   97  A    between atoms: _248  and  _249
REMARK   98  A    between atoms: _248  and  _251
REMARK   99  A    between atoms: _251  and  _252
REMARK  100  A    between atoms: _257  and  _258
REMARK  101  A    between atoms: _260  and  _262
REMARK  102  A    between atoms: _262  and  _263
REMARK  103  A    between atoms: _262  and  _265
REMARK  104  A    between atoms: _265  and  _266
REMARK  105  A    between atoms: _269  and  _271
REMARK  106  A    between atoms: _271  and  _272
REMARK  107  A    between atoms: _271  and  _274
REMARK  108  A    between atoms: _274  and  _275
REMARK  109  A    between atoms: _275  and  _558
REMARK  110  A    between atoms: _276  and  _278
REMARK  111  A    between atoms: _278  and  _279
REMARK  112  A    between atoms: _278  and  _281
REMARK  113  A    between atoms: _281  and  _282
REMARK  114  A    between atoms: _285  and  _287
REMARK  115  A    between atoms: _287  and  _288
REMARK  116  A    between atoms: _287  and  _290
REMARK  117  A    between atoms: _290  and  _291
REMARK  118  A    between atoms: _296  and  _297
REMARK  119  A    between atoms: _299  and  _301
REMARK  120  A    between atoms: _301  and  _302
REMARK  121  A    between atoms: _301  and  _304
REMARK  122  A    between atoms: _304  and  _305
REMARK  123  A    between atoms: _310  and  _311
REMARK  124  A    between atoms: _313  and  _315
REMARK  125  A    between atoms: _315  and  _316
REMARK  126  A    between atoms: _315  and  _318
REMARK  127  A    between atoms: _318  and  _319
REMARK  128  A    between atoms: _319  and  _320
REMARK  129  A    between atoms: _323  and  _325
REMARK  130  A    between atoms: _325  and  _326
REMARK  131  A    between atoms: _325  and  _328
REMARK  132  A    between atoms: _328  and  _329
REMARK  133  A    between atoms: _334  and  _335
REMARK  134  A    between atoms: _337  and  _339
REMARK  135  A    between atoms: _339  and  _340
REMARK  136  A    between atoms: _339  and  _342
REMARK  137  A    between atoms: _342  and  _343
REMARK  138  A    between atoms: _348  and  _350
REMARK  139  A    between atoms: _350  and  _351
REMARK  140  A    between atoms: _350  and  _353
REMARK  141  A    between atoms: _353  and  _354
REMARK  142  A    between atoms: _357  and  _359
REMARK  143  A    between atoms: _359  and  _360
REMARK  144  A    between atoms: _359  and  _362
REMARK  145  A    between atoms: _362  and  _363
REMARK  146  A    between atoms: _368  and  _370
REMARK  147  A    between atoms: _370  and  _371
REMARK  148  A    between atoms: _370  and  _373
REMARK  149  A    between atoms: _373  and  _374
REMARK  150  A    between atoms: _384  and  _386
REMARK  151  A    between atoms: _386  and  _387
REMARK  152  A    between atoms: _386  and  _389
REMARK  153  A    between atoms: _389  and  _390
REMARK  154  A    between atoms: _390  and  _391
REMARK  155  A    between atoms: _391  and  _392
REMARK  156  A    between atoms: _392  and  _393
REMARK  157  A    between atoms: _397  and  _399
REMARK  158  A    between atoms: _399  and  _400
REMARK  159  A    between atoms: _399  and  _402
REMARK  160  A    between atoms: _402  and  _403
REMARK  161  A    between atoms: _406  and  _408
REMARK  162  A    between atoms: _408  and  _409
REMARK  163  A    between atoms: _408  and  _411
REMARK  164  A    between atoms: _411  and  _412
REMARK  165  A    between atoms: _418  and  _420
REMARK  166  A    between atoms: _420  and  _421
REMARK  167  A    between atoms: _420  and  _423
REMARK  168  A    between atoms: _423  and  _424
REMARK  169  A    between atoms: _427  and  _429
REMARK  170  A    between atoms: _429  and  _430
REMARK  171  A    between atoms: _429  and  _432
REMARK  172  A    between atoms: _432  and  _433
REMARK  173  A    between atoms: _436  and  _438
REMARK  174  A    between atoms: _438  and  _439
REMARK  175  A    between atoms: _438  and  _441
REMARK  176  A    between atoms: _441  and  _442
REMARK  177  A    between atoms: _445  and  _447
REMARK  178  A    between atoms: _447  and  _448
REMARK  179  A    between atoms: _447  and  _450
REMARK  180  A    between atoms: _450  and  _451
REMARK  181  A    between atoms: _451  and  _452
REMARK  182  A    between atoms: _452  and  _453
REMARK  183  A    between atoms: _462  and  _464
REMARK  184  A    between atoms: _464  and  _465
REMARK  185  A    between atoms: _464  and  _467
REMARK  186  A    between atoms: _467  and  _468
REMARK  187  A    between atoms: _473  and  _475
REMARK  188  A    between atoms: _475  and  _476
REMARK  189  A    between atoms: _475  and  _478
REMARK  190  A    between atoms: _478  and  _479
REMARK  191  A    between atoms: _479  and  _480
REMARK  192  A    between atoms: _485  and  _487
REMARK  193  A    between atoms: _487  and  _488
REMARK  194  A    between atoms: _490  and  _492
REMARK  195  A    between atoms: _492  and  _493
REMARK  196  A    between atoms: _492  and  _495
REMARK  197  A    between atoms: _495  and  _496
REMARK  198  A    between atoms: _502  and  _504
REMARK  199  A    between atoms: _504  and  _505
REMARK  200  A    between atoms: _508  and  _510
REMARK  201  A    between atoms: _510  and  _511
REMARK  202  A    between atoms: _510  and  _513
REMARK  203  A    between atoms: _513  and  _514
REMARK  204  A    between atoms: _514  and  _515
REMARK  205  A    between atoms: _515  and  _516
REMARK  206  A    between atoms: _525  and  _527
REMARK  207  A    between atoms: _527  and  _528
REMARK  208  A    between atoms: _531  and  _533
REMARK  209  A    between atoms: _533  and  _534
REMARK  210  A    between atoms: _536  and  _538
REMARK  211  A    between atoms: _538  and  _539
REMARK  212  A    between atoms: _538  and  _541
REMARK  213  A    between atoms: _541  and  _542
REMARK  214  A    between atoms: _552  and  _554
REMARK  215  A    between atoms: _554  and  _555
REMARK  216  A    between atoms: _554  and  _557
REMARK  217  A    between atoms: _557  and  _558
REMARK  218  A    between atoms: _559  and  _561
REMARK  219  A    between atoms: _561  and  _562
REMARK  220  A    between atoms: _565  and  _567
REMARK  221  A    between atoms: _567  and  _568
REMARK  222  A    between atoms: _567  and  _570
REMARK  223  A    between atoms: _570  and  _571
REMARK  224  A    between atoms: _574  and  _576
REMARK  225  A    between atoms: _576  and  _577
REMARK  226  A    between atoms: _576  and  _579
REMARK  227  A    between atoms: _579  and  _580
REMARK  228  A    between atoms: _585  and  _586
REMARK  229  A    between atoms: _588  and  _590
REMARK  230  A    between atoms: _590  and  _591
REMARK  231  A    between atoms: _590  and  _593
REMARK  232  A    between atoms: _593  and  _594
REMARK  233  A    between atoms: _596  and  _598
REMARK  234  A    between atoms: _598  and  _599
REMARK  235  A    between atoms: _598  and  _601
REMARK  236  A    between atoms: _601  and  _602
REMARK  237  A    between atoms: _608  and  _610
REMARK  238  A    between atoms: _610  and  _611
REMARK  239  A    between atoms: _610  and  _613
REMARK  240  A    between atoms: _613  and  _614
REMARK  241  A    between atoms: _617  and  _619
REMARK  242  A    between atoms: _619  and  _620
REMARK  243  A    between atoms: _619  and  _622
REMARK  244  A    between atoms: _622  and  _623
REMARK  245  A    between atoms: _625  and  _627
REMARK  246  A    between atoms: _627  and  _628
REMARK  247  A    between atoms: _627  and  _630
REMARK  248  A    between atoms: _630  and  _631
REMARK  249  A    between atoms: _636  and  _638
REMARK  250  A    between atoms: _638  and  _639
REMARK  251  A    between atoms: _638  and  _641
REMARK  252  A    between atoms: _641  and  _642
REMARK  253  A    between atoms: _647  and  _649
REMARK  254  A    between atoms: _649  and  _650
REMARK  255  A    between atoms: _649  and  _652
REMARK  256  A    between atoms: _652  and  _653
REMARK  257  A    between atoms: _656  and  _658
REMARK  258  A    between atoms: _658  and  _659
REMARK  259  A    between atoms: _662  and  _664
REMARK  260  A    between atoms: _664  and  _665
REMARK  261  A    between atoms: _664  and  _667
REMARK  262  A    between atoms: _667  and  _668
REMARK  263  A    between atoms: _673  and  _674
REMARK  264  A    between atoms: _676  and  _678
REMARK  265  A    between atoms: _678  and  _679
REMARK  266  A    between atoms: _678  and  _681
REMARK  267  A    between atoms: _681  and  _682
REMARK  268  A    between atoms: _687  and  _688
REMARK  269  A    between atoms: _690  and  _692
REMARK  270  A    between atoms: _692  and  _693
REMARK  271  A    between atoms: _692  and  _695
REMARK  272  A    between atoms: _698  and  _700
REMARK  273  A    between atoms: _700  and  _701
REMARK  274  A    between atoms: _700  and  _703
REMARK  275  A    between atoms: _703  and  _704
REMARK  276  A    between atoms: _709  and  _711
REMARK  277  A    between atoms: _711  and  _712
REMARK  278  A    between atoms: _715  and  _717
REMARK  279  A    between atoms: _717  and  _718
REMARK  280  A    between atoms: _717  and  _720
REMARK  281  A    between atoms: _720  and  _721
REMARK  282  A    between atoms: _721  and  _722
REMARK  283  A    between atoms: _722  and  _723
REMARK  284  A    between atoms: _732  and  _734
REMARK  285  A    between atoms: _734  and  _735
REMARK  286  A    between atoms: _734  and  _737
REMARK  287  A    between atoms: _737  and  _738
REMARK  288  A    between atoms: _741  and  _743
REMARK  289  A    between atoms: _743  and  _744
REMARK  290  A    between atoms: _743  and  _746
REMARK  291  A    between atoms: _746  and  _747
REMARK  292  A    between atoms: _750  and  _752
REMARK  293  A    between atoms: _752  and  _753
REMARK  294  A    between atoms: _752  and  _755
REMARK  295  A    between atoms: _755  and  _756
REMARK  296  A    between atoms: _797  and  _800
REMARK                            x       y       z     vdW  Elec       q    Type
REMARK                         _______ _______ _______ _____ _____    ______ ____
ROOT
ATOM      1  O   HOH     1       6.918  30.680  14.628  0.00  0.00    +0.000 OA
ENDROOT
TORSDOF 0
REMARK  Name = ../refined-set-2016/1b1h/1b1h_pocket.pdb
REMARK  296 active torsions:
REMARK  status: ('A' for Active; 'I' for Inactive)
REMARK    1  A    between atoms: _1  and  _3
REMARK    2  A    between atoms: _3  and  _4
REMARK    3  A    between atoms: _3  and  _6
REMARK    4  A    between atoms: _6  and  _7
REMARK    5  A    between atoms: _12  and  _14
REMARK    6  A    between atoms: _14  and  _15
REMARK    7  A    between atoms: _17  and  _19
REMARK    8  A    between atoms: _19  and  _20
REMARK    9  A    between atoms: _19  and  _22
REMARK   10  A    between atoms: _22  and  _23
REMARK   11  A    between atoms: _25  and  _27
REMARK   12  A    between atoms: _27  and  _28
REMARK   13  A    between atoms: _27  and  _30
REMARK   14  A    between atoms: _30  and  _31
REMARK   15  A    between atoms: _31  and  _32
REMARK   16  A    between atoms: _37  and  _39
REMARK   17  A    between atoms: _39  and  _40
REMARK   18  A    between atoms: _39  and  _42
REMARK   19  A    between atoms: _42  and  _43
REMARK   20  A    between atoms: _46  and  _48
REMARK   21  A    between atoms: _48  and  _49
REMARK   22  A    between atoms: _48  and  _51
REMARK   23  A    between atoms: _51  and  _52
REMARK   24  A    between atoms: _52  and  _53
REMARK   25  A    between atoms: _56  and  _58
REMARK   26  A    between atoms: _58  and  _59
REMARK   27  A    between atoms: _61  and  _63
REMARK   28  A    between atoms: _63  and  _64
REMARK   29  A    between atoms: _63  and  _66
REMARK   30  A    between atoms: _70  and  _71
REMARK   31  A    between atoms: _76  and  _78
REMARK   32  A    between atoms: _78  and  _79
REMARK   33  A    between atoms: _78  and  _81
REMARK   34  A    between atoms: _81  and  _82
REMARK   35  A    between atoms: _82  and  _83
REMARK   36  A    between atoms: _86  and  _88
REMARK   37  A    between atoms: _88  and  _89
REMARK   38  A    between atoms: _88  and  _91
REMARK   39  A    between atoms: _91  and  _92
REMARK   40  A    between atoms: _94  and  _96
REMARK   41  A    between atoms: _96  and  _97
REMARK   42  A    between atoms: _96  and  _99
REMARK   43  A    between atoms: _99  and  _100
REMARK   44  A    between atoms: _105  and  _107
REMARK   45  A    between atoms: _107  and  _108
REMARK   46  A    between atoms: _107  and  _110
REMARK   47  A    between atoms: _110  and  _111
REMARK   48  A    between atoms: _111  and  _112
REMARK   49  A    between atoms: _112  and  _113
REMARK   50  A    between atoms: _123  and  _124
REMARK   51  A    between atoms: _129  and  _131
REMARK   52  A    between atoms: _131  and  _132
REMARK   53  A    between atoms: _131  and  _134
REMARK   54  A    between atoms: _134  and  _135
REMARK   55  A    between atoms: _140  and  _141
REMARK   56  A    between atoms: _143  and  _145
REMARK   57  A    between atoms: _145  and  _146
REMARK   58  A    between atoms: _145  and  _148
REMARK   59  A    between atoms: _148  and  _149
REMARK   60  A    between atoms: _154  and  _155
REMARK   61  A    between atoms: _157  and  _159
REMARK   62  A    between atoms: _159  and  _160
REMARK   63  A    between atoms: _159  and  _162
REMARK   64  A    between atoms: _165  and  _167
REMARK   65  A    between atoms: _167  and  _168
REMARK   66  A    between atoms: _167  and  _170
REMARK   67  A    between atoms: _170  and  _171
REMARK   68  A    between atoms: _177  and  _178
REMARK   69  A    between atoms: _183  and  _185
REMARK   70  A    between atoms: _185  and  _186
REMARK   71  A    between atoms: _185  and  _188
REMARK   72  A    between atoms: _188  and  _189
REMARK   73  A    between atoms: _191  and  _193
REMARK   74  A    between atoms: _193  and  _194
REMARK   75  A    between atoms: _193  and  _196
REMARK   76  A    between atoms: _196  and  _197
REMARK   77  A    between atoms: _197  and  _198
REMARK   78  A    between atoms: _201  and  _203
REMARK   79  A    between atoms: _203  and  _204
REMARK   80  A    between atoms: _203  and  _206
REMARK   81  A    between atoms: _206  and  _207
REMARK   82  A    between atoms: _212  and  _213
REMARK   83  A    between atoms: _215  and  _217
REMARK   84  A    between atoms: _217  and  _218
REMARK   85  A    between atoms: _217  and  _220
REMARK   86  A    between atoms: _220  and  _221
REMARK   87  A    between atoms: _226  and  _228
REMARK   88  A    between atoms: _228  and  _229
REMARK   89  A    between atoms: _228  and  _231
REMARK   90  A    between atoms: _231  and  _232
REMARK   91  A    between atoms: _237  and  _239
REMARK   92  A    between atoms: _239  and  _240
REMARK   93  A    between atoms: _239  and  _242
REMARK   94  A    between atoms: _242  and  _243
REMARK   95  A    between atoms: _243  and  _244
REMARK   96  A    between atoms: _246  and  _248
REMARK   97  A    between atoms: _248  and  _249
REMARK   98  A    between atoms: _248  and  _251
REMARK   99  A    between atoms: _251  and  _252
REMARK  100  A    between atoms: _257  and  _258
REMARK  101  A    between atoms: _260  and  _262
REMARK  102  A    between atoms: _262  and  _263
REMARK  103  A    between atoms: _262  and  _265
REMARK  104  A    between atoms: _265  and  _266
REMARK  105  A    between atoms: _269  and  _271
REMARK  106  A    between atoms: _271  and  _272
REMARK  107  A    between atoms: _271  and  _274
REMARK  108  A    between atoms: _274  and  _275
REMARK  109  A    between atoms: _275  and  _558
REMARK  110  A    between atoms: _276  and  _278
REMARK  111  A    between atoms: _278  and  _279
REMARK  112  A    between atoms: _278  and  _281
REMARK  113  A    between atoms: _281  and  _282
REMARK  114  A    between atoms: _285  and  _287
REMARK  115  A    between atoms: _287  and  _288
REMARK  116  A    between atoms: _287  and  _290
REMARK  117  A    between atoms: _290  and  _291
REMARK  118  A    between atoms: _296  and  _297
REMARK  119  A    between atoms: _299  and  _301
REMARK  120  A    between atoms: _301  and  _302
REMARK  121  A    between atoms: _301  and  _304
REMARK  122  A    between atoms: _304  and  _305
REMARK  123  A    between atoms: _310  and  _311
REMARK  124  A    between atoms: _313  and  _315
REMARK  125  A    between atoms: _315  and  _316
REMARK  126  A    between atoms: _315  and  _318
REMARK  127  A    between atoms: _318  and  _319
REMARK  128  A    between atoms: _319  and  _320
REMARK  129  A    between atoms: _323  and  _325
REMARK  130  A    between atoms: _325  and  _326
REMARK  131  A    between atoms: _325  and  _328
REMARK  132  A    between atoms: _328  and  _329
REMARK  133  A    between atoms: _334  and  _335
REMARK  134  A    between atoms: _337  and  _339
REMARK  135  A    between atoms: _339  and  _340
REMARK  136  A    between atoms: _339  and  _342
REMARK  137  A    between atoms: _342  and  _343
REMARK  138  A    between atoms: _348  and  _350
REMARK  139  A    between atoms: _350  and  _351
REMARK  140  A    between atoms: _350  and  _353
REMARK  141  A    between atoms: _353  and  _354
REMARK  142  A    between atoms: _357  and  _359
REMARK  143  A    between atoms: _359  and  _360
REMARK  144  A    between atoms: _359  and  _362
REMARK  145  A    between atoms: _362  and  _363
REMARK  146  A    between atoms: _368  and  _370
REMARK  147  A    between atoms: _370  and  _371
REMARK  148  A    between atoms: _370  and  _373
REMARK  149  A    between atoms: _373  and  _374
REMARK  150  A    between atoms: _384  and  _386
REMARK  151  A    between atoms: _386  and  _387
REMARK  152  A    between atoms: _386  and  _389
REMARK  153  A    between atoms: _389  and  _390
REMARK  154  A    between atoms: _390  and  _391
REMARK  155  A    between atoms: _391  and  _392
REMARK  156  A    between atoms: _392  and  _393
REMARK  157  A    between atoms: _397  and  _399
REMARK  158  A    between atoms: _399  and  _400
REMARK  159  A    between atoms: _399  and  _402
REMARK  160  A    between atoms: _402  and  _403
REMARK  161  A    between atoms: _406  and  _408
REMARK  162  A    between atoms: _408  and  _409
REMARK  163  A    between atoms: _408  and  _411
REMARK  164  A    between atoms: _411  and  _412
REMARK  165  A    between atoms: _418  and  _420
REMARK  166  A    between atoms: _420  and  _421
REMARK  167  A    between atoms: _420  and  _423
REMARK  168  A    between atoms: _423  and  _424
REMARK  169  A    between atoms: _427  and  _429
REMARK  170  A    between atoms: _429  and  _430
REMARK  171  A    between atoms: _429  and  _432
REMARK  172  A    between atoms: _432  and  _433
REMARK  173  A    between atoms: _436  and  _438
REMARK  174  A    between atoms: _438  and  _439
REMARK  175  A    between atoms: _438  and  _441
REMARK  176  A    between atoms: _441  and  _442
REMARK  177  A    between atoms: _445  and  _447
REMARK  178  A    between atoms: _447  and  _448
REMARK  179  A    between atoms: _447  and  _450
REMARK  180  A    between atoms: _450  and  _451
REMARK  181  A    between atoms: _451  and  _452
REMARK  182  A    between atoms: _452  and  _453
REMARK  183  A    between atoms: _462  and  _464
REMARK  184  A    between atoms: _464  and  _465
REMARK  185  A    between atoms: _464  and  _467
REMARK  186  A    between atoms: _467  and  _468
REMARK  187  A    between atoms: _473  and  _475
REMARK  188  A    between atoms: _475  and  _476
REMARK  189  A    between atoms: _475  and  _478
REMARK  190  A    between atoms: _478  and  _479
REMARK  191  A    between atoms: _479  and  _480
REMARK  192  A    between atoms: _485  and  _487
REMARK  193  A    between atoms: _487  and  _488
REMARK  194  A    between atoms: _490  and  _492
REMARK  195  A    between atoms: _492  and  _493
REMARK  196  A    between atoms: _492  and  _495
REMARK  197  A    between atoms: _495  and  _496
REMARK  198  A    between atoms: _502  and  _504
REMARK  199  A    between atoms: _504  and  _505
REMARK  200  A    between atoms: _508  and  _510
REMARK  201  A    between atoms: _510  and  _511
REMARK  202  A    between atoms: _510  and  _513
REMARK  203  A    between atoms: _513  and  _514
REMARK  204  A    between atoms: _514  and  _515
REMARK  205  A    between atoms: _515  and  _516
REMARK  206  A    between atoms: _525  and  _527
REMARK  207  A    between atoms: _527  and  _528
REMARK  208  A    between atoms: _531  and  _533
REMARK  209  A    between atoms: _533  and  _534
REMARK  210  A    between atoms: _536  and  _538
REMARK  211  A    between atoms: _538  and  _539
REMARK  212  A    between atoms: _538  and  _541
REMARK  213  A    between atoms: _541  and  _542
REMARK  214  A    between atoms: _552  and  _554
REMARK  215  A    between atoms: _554  and  _555
REMARK  216  A    between atoms: _554  and  _557
REMARK  217  A    between atoms: _557  and  _558
REMARK  218  A    between atoms: _559  and  _561
REMARK  219  A    between atoms: _561  and  _562
REMARK  220  A    between atoms: _565  and  _567
REMARK  221  A    between atoms: _567  and  _568
REMARK  222  A    between atoms: _567  and  _570
REMARK  223  A    between atoms: _570  and  _571
REMARK  224  A    between atoms: _574  and  _576
REMARK  225  A    between atoms: _576  and  _577
REMARK  226  A    between atoms: _576  and  _579
REMARK  227  A    between atoms: _579  and  _580
REMARK  228  A    between atoms: _585  and  _586
REMARK  229  A    between atoms: _588  and  _590
REMARK  230  A    between atoms: _590  and  _591
REMARK  231  A    between atoms: _590  and  _593
REMARK  232  A    between atoms: _593  and  _594
REMARK  233  A    between atoms: _596  and  _598
REMARK  234  A    between atoms: _598  and  _599
REMARK  235  A    between atoms: _598  and  _601
REMARK  236  A    between atoms: _601  and  _602
REMARK  237  A    between atoms: _608  and  _610
REMARK  238  A    between atoms: _610  and  _611
REMARK  239  A    between atoms: _610  and  _613
REMARK  240  A    between atoms: _613  and  _614
REMARK  241  A    between atoms: _617  and  _619
REMARK  242  A    between atoms: _619  and  _620
REMARK  243  A    between atoms: _619  and  _622
REMARK  244  A    between atoms: _622  and  _623
REMARK  245  A    between atoms: _625  and  _627
REMARK  246  A    between atoms: _627  and  _628
REMARK  247  A    between atoms: _627  and  _630
REMARK  248  A    between atoms: _630  and  _631
REMARK  249  A    between atoms: _636  and  _638
REMARK  250  A    between atoms: _638  and  _639
REMARK  251  A    between atoms: _638  and  _641
REMARK  252  A    between atoms: _641  and  _642
REMARK  253  A    between atoms: _647  and  _649
REMARK  254  A    between atoms: _649  and  _650
REMARK  255  A    between atoms: _649  and  _652
REMARK  256  A    between atoms: _652  and  _653
REMARK  257  A    between atoms: _656  and  _658
REMARK  258  A    between atoms: _658  and  _659
REMARK  259  A    between atoms: _662  and  _664
REMARK  260  A    between atoms: _664  and  _665
REMARK  261  A    between atoms: _664  and  _667
REMARK  262  A    between atoms: _667  and  _668
REMARK  263  A    between atoms: _673  and  _674
REMARK  264  A    between atoms: _676  and  _678
REMARK  265  A    between atoms: _678  and  _679
REMARK  266  A    between atoms: _678  and  _681
REMARK  267  A    between atoms: _681  and  _682
REMARK  268  A    between atoms: _687  and  _688
REMARK  269  A    between atoms: _690  and  _692
REMARK  270  A    between atoms: _692  and  _693
REMARK  271  A    between atoms: _692  and  _695
REMARK  272  A    between atoms: _698  and  _700
REMARK  273  A    between atoms: _700  and  _701
REMARK  274  A    between atoms: _700  and  _703
REMARK  275  A    between atoms: _703  and  _704
REMARK  276  A    between atoms: _709  and  _711
REMARK  277  A    between atoms: _711  and  _712
REMARK  278  A    between atoms: _715  and  _717
REMARK  279  A    between atoms: _717  and  _718
REMARK  280  A    between atoms: _717  and  _720
REMARK  281  A    between atoms: _720  and  _721
REMARK  282  A    between atoms: _721  and  _722
REMARK  283  A    between atoms: _722  and  _723
REMARK  284  A    between atoms: _732  and  _734
REMARK  285  A    between atoms: _734  and  _735
REMARK  286  A    between atoms: _734  and  _737
REMARK  287  A    between atoms: _737  and  _738
REMARK  288  A    between atoms: _741  and  _743
REMARK  289  A    between atoms: _743  and  _744
REMARK  290  A    between atoms: _743  and  _746
REMARK  291  A    between atoms: _746  and  _747
REMARK  292  A    between atoms: _750  and  _752
REMARK  293  A    between atoms: _752  and  _753
REMARK  294  A    between atoms: _752  and  _755
REMARK  295  A    between atoms: _755  and  _756
REMARK  296  A    between atoms: _797  and  _800
REMARK                            x       y       z     vdW  Elec       q    Type
REMARK                         _______ _______ _______ _____ _____    ______ ____
ROOT
ATOM      1  O   HOH     1       1.748  22.177  19.271  0.00  0.00    +0.000 OA
ENDROOT
TORSDOF 0
REMARK  Name = ../refined-set-2016/1b1h/1b1h_pocket.pdb
REMARK  296 active torsions:
REMARK  status: ('A' for Active; 'I' for Inactive)
REMARK    1  A    between atoms: _1  and  _3
REMARK    2  A    between atoms: _3  and  _4
REMARK    3  A    between atoms: _3  and  _6
REMARK    4  A    between atoms: _6  and  _7
REMARK    5  A    between atoms: _12  and  _14
REMARK    6  A    between atoms: _14  and  _15
REMARK    7  A    between atoms: _17  and  _19
REMARK    8  A    between atoms: _19  and  _20
REMARK    9  A    between atoms: _19  and  _22
REMARK   10  A    between atoms: _22  and  _23
REMARK   11  A    between atoms: _25  and  _27
REMARK   12  A    between atoms: _27  and  _28
REMARK   13  A    between atoms: _27  and  _30
REMARK   14  A    between atoms: _30  and  _31
REMARK   15  A    between atoms: _31  and  _32
REMARK   16  A    between atoms: _37  and  _39
REMARK   17  A    between atoms: _39  and  _40
REMARK   18  A    between atoms: _39  and  _42
REMARK   19  A    between atoms: _42  and  _43
REMARK   20  A    between atoms: _46  and  _48
REMARK   21  A    between atoms: _48  and  _49
REMARK   22  A    between atoms: _48  and  _51
REMARK   23  A    between atoms: _51  and  _52
REMARK   24  A    between atoms: _52  and  _53
REMARK   25  A    between atoms: _56  and  _58
REMARK   26  A    between atoms: _58  and  _59
REMARK   27  A    between atoms: _61  and  _63
REMARK   28  A    between atoms: _63  and  _64
REMARK   29  A    between atoms: _63  and  _66
REMARK   30  A    between atoms: _70  and  _71
REMARK   31  A    between atoms: _76  and  _78
REMARK   32  A    between atoms: _78  and  _79
REMARK   33  A    between atoms: _78  and  _81
REMARK   34  A    between atoms: _81  and  _82
REMARK   35  A    between atoms: _82  and  _83
REMARK   36  A    between atoms: _86  and  _88
REMARK   37  A    between atoms: _88  and  _89
REMARK   38  A    between atoms: _88  and  _91
REMARK   39  A    between atoms: _91  and  _92
REMARK   40  A    between atoms: _94  and  _96
REMARK   41  A    between atoms: _96  and  _97
REMARK   42  A    between atoms: _96  and  _99
REMARK   43  A    between atoms: _99  and  _100
REMARK   44  A    between atoms: _105  and  _107
REMARK   45  A    between atoms: _107  and  _108
REMARK   46  A    between atoms: _107  and  _110
REMARK   47  A    between atoms: _110  and  _111
REMARK   48  A    between atoms: _111  and  _112
REMARK   49  A    between atoms: _112  and  _113
REMARK   50  A    between atoms: _123  and  _124
REMARK   51  A    between atoms: _129  and  _131
REMARK   52  A    between atoms: _131  and  _132
REMARK   53  A    between atoms: _131  and  _134
REMARK   54  A    between atoms: _134  and  _135
REMARK   55  A    between atoms: _140  and  _141
REMARK   56  A    between atoms: _143  and  _145
REMARK   57  A    between atoms: _145  and  _146
REMARK   58  A    between atoms: _145  and  _148
REMARK   59  A    between atoms: _148  and  _149
REMARK   60  A    between atoms: _154  and  _155
REMARK   61  A    between atoms: _157  and  _159
REMARK   62  A    between atoms: _159  and  _160
REMARK   63  A    between atoms: _159  and  _162
REMARK   64  A    between atoms: _165  and  _167
REMARK   65  A    between atoms: _167  and  _168
REMARK   66  A    between atoms: _167  and  _170
REMARK   67  A    between atoms: _170  and  _171
REMARK   68  A    between atoms: _177  and  _178
REMARK   69  A    between atoms: _183  and  _185
REMARK   70  A    between atoms: _185  and  _186
REMARK   71  A    between atoms: _185  and  _188
REMARK   72  A    between atoms: _188  and  _189
REMARK   73  A    between atoms: _191  and  _193
REMARK   74  A    between atoms: _193  and  _194
REMARK   75  A    between atoms: _193  and  _196
REMARK   76  A    between atoms: _196  and  _197
REMARK   77  A    between atoms: _197  and  _198
REMARK   78  A    between atoms: _201  and  _203
REMARK   79  A    between atoms: _203  and  _204
REMARK   80  A    between atoms: _203  and  _206
REMARK   81  A    between atoms: _206  and  _207
REMARK   82  A    between atoms: _212  and  _213
REMARK   83  A    between atoms: _215  and  _217
REMARK   84  A    between atoms: _217  and  _218
REMARK   85  A    between atoms: _217  and  _220
REMARK   86  A    between atoms: _220  and  _221
REMARK   87  A    between atoms: _226  and  _228
REMARK   88  A    between atoms: _228  and  _229
REMARK   89  A    between atoms: _228  and  _231
REMARK   90  A    between atoms: _231  and  _232
REMARK   91  A    between atoms: _237  and  _239
REMARK   92  A    between atoms: _239  and  _240
REMARK   93  A    between atoms: _239  and  _242
REMARK   94  A    between atoms: _242  and  _243
REMARK   95  A    between atoms: _243  and  _244
REMARK   96  A    between atoms: _246  and  _248
REMARK   97  A    between atoms: _248  and  _249
REMARK   98  A    between atoms: _248  and  _251
REMARK   99  A    between atoms: _251  and  _252
REMARK  100  A    between atoms: _257  and  _258
REMARK  101  A    between atoms: _260  and  _262
REMARK  102  A    between atoms: _262  and  _263
REMARK  103  A    between atoms: _262  and  _265
REMARK  104  A    between atoms: _265  and  _266
REMARK  105  A    between atoms: _269  and  _271
REMARK  106  A    between atoms: _271  and  _272
REMARK  107  A    between atoms: _271  and  _274
REMARK  108  A    between atoms: _274  and  _275
REMARK  109  A    between atoms: _275  and  _558
REMARK  110  A    between atoms: _276  and  _278
REMARK  111  A    between atoms: _278  and  _279
REMARK  112  A    between atoms: _278  and  _281
REMARK  113  A    between atoms: _281  and  _282
REMARK  114  A    between atoms: _285  and  _287
REMARK  115  A    between atoms: _287  and  _288
REMARK  116  A    between atoms: _287  and  _290
REMARK  117  A    between atoms: _290  and  _291
REMARK  118  A    between atoms: _296  and  _297
REMARK  119  A    between atoms: _299  and  _301
REMARK  120  A    between atoms: _301  and  _302
REMARK  121  A    between atoms: _301  and  _304
REMARK  122  A    between atoms: _304  and  _305
REMARK  123  A    between atoms: _310  and  _311
REMARK  124  A    between atoms: _313  and  _315
REMARK  125  A    between atoms: _315  and  _316
REMARK  126  A    between atoms: _315  and  _318
REMARK  127  A    between atoms: _318  and  _319
REMARK  128  A    between atoms: _319  and  _320
REMARK  129  A    between atoms: _323  and  _325
REMARK  130  A    between atoms: _325  and  _326
REMARK  131  A    between atoms: _325  and  _328
REMARK  132  A    between atoms: _328  and  _329
REMARK  133  A    between atoms: _334  and  _335
REMARK  134  A    between atoms: _337  and  _339
REMARK  135  A    between atoms: _339  and  _340
REMARK  136  A    between atoms: _339  and  _342
REMARK  137  A    between atoms: _342  and  _343
REMARK  138  A    between atoms: _348  and  _350
REMARK  139  A    between atoms: _350  and  _351
REMARK  140  A    between atoms: _350  and  _353
REMARK  141  A    between atoms: _353  and  _354
REMARK  142  A    between atoms: _357  and  _359
REMARK  143  A    between atoms: _359  and  _360
REMARK  144  A    between atoms: _359  and  _362
REMARK  145  A    between atoms: _362  and  _363
REMARK  146  A    between atoms: _368  and  _370
REMARK  147  A    between atoms: _370  and  _371
REMARK  148  A    between atoms: _370  and  _373
REMARK  149  A    between atoms: _373  and  _374
REMARK  150  A    between atoms: _384  and  _386
REMARK  151  A    between atoms: _386  and  _387
REMARK  152  A    between atoms: _386  and  _389
REMARK  153  A    between atoms: _389  and  _390
REMARK  154  A    between atoms: _390  and  _391
REMARK  155  A    between atoms: _391  and  _392
REMARK  156  A    between atoms: _392  and  _393
REMARK  157  A    between atoms: _397  and  _399
REMARK  158  A    between atoms: _399  and  _400
REMARK  159  A    between atoms: _399  and  _402
REMARK  160  A    between atoms: _402  and  _403
REMARK  161  A    between atoms: _406  and  _408
REMARK  162  A    between atoms: _408  and  _409
REMARK  163  A    between atoms: _408  and  _411
REMARK  164  A    between atoms: _411  and  _412
REMARK  165  A    between atoms: _418  and  _420
REMARK  166  A    between atoms: _420  and  _421
REMARK  167  A    between atoms: _420  and  _423
REMARK  168  A    between atoms: _423  and  _424
REMARK  169  A    between atoms: _427  and  _429
REMARK  170  A    between atoms: _429  and  _430
REMARK  171  A    between atoms: _429  and  _432
REMARK  172  A    between atoms: _432  and  _433
REMARK  173  A    between atoms: _436  and  _438
REMARK  174  A    between atoms: _438  and  _439
REMARK  175  A    between atoms: _438  and  _441
REMARK  176  A    between atoms: _441  and  _442
REMARK  177  A    between atoms: _445  and  _447
REMARK  178  A    between atoms: _447  and  _448
REMARK  179  A    between atoms: _447  and  _450
REMARK  180  A    between atoms: _450  and  _451
REMARK  181  A    between atoms: _451  and  _452
REMARK  182  A    between atoms: _452  and  _453
REMARK  183  A    between atoms: _462  and  _464
REMARK  184  A    between atoms: _464  and  _465
REMARK  185  A    between atoms: _464  and  _467
REMARK  186  A    between atoms: _467  and  _468
REMARK  187  A    between atoms: _473  and  _475
REMARK  188  A    between atoms: _475  and  _476
REMARK  189  A    between atoms: _475  and  _478
REMARK  190  A    between atoms: _478  and  _479
REMARK  191  A    between atoms: _479  and  _480
REMARK  192  A    between atoms: _485  and  _487
REMARK  193  A    between atoms: _487  and  _488
REMARK  194  A    between atoms: _490  and  _492
REMARK  195  A    between atoms: _492  and  _493
REMARK  196  A    between atoms: _492  and  _495
REMARK  197  A    between atoms: _495  and  _496
REMARK  198  A    between atoms: _502  and  _504
REMARK  199  A    between atoms: _504  and  _505
REMARK  200  A    between atoms: _508  and  _510
REMARK  201  A    between atoms: _510  and  _511
REMARK  202  A    between atoms: _510  and  _513
REMARK  203  A    between atoms: _513  and  _514
REMARK  204  A    between atoms: _514  and  _515
REMARK  205  A    between atoms: _515  and  _516
REMARK  206  A    between atoms: _525  and  _527
REMARK  207  A    between atoms: _527  and  _528
REMARK  208  A    between atoms: _531  and  _533
REMARK  209  A    between atoms: _533  and  _534
REMARK  210  A    between atoms: _536  and  _538
REMARK  211  A    between atoms: _538  and  _539
REMARK  212  A    between atoms: _538  and  _541
REMARK  213  A    between atoms: _541  and  _542
REMARK  214  A    between atoms: _552  and  _554
REMARK  215  A    between atoms: _554  and  _555
REMARK  216  A    between atoms: _554  and  _557
REMARK  217  A    between atoms: _557  and  _558
REMARK  218  A    between atoms: _559  and  _561
REMARK  219  A    between atoms: _561  and  _562
REMARK  220  A    between atoms: _565  and  _567
REMARK  221  A    between atoms: _567  and  _568
REMARK  222  A    between atoms: _567  and  _570
REMARK  223  A    between atoms: _570  and  _571
REMARK  224  A    between atoms: _574  and  _576
REMARK  225  A    between atoms: _576  and  _577
REMARK  226  A    between atoms: _576  and  _579
REMARK  227  A    between atoms: _579  and  _580
REMARK  228  A    between atoms: _585  and  _586
REMARK  229  A    between atoms: _588  and  _590
REMARK  230  A    between atoms: _590  and  _591
REMARK  231  A    between atoms: _590  and  _593
REMARK  232  A    between atoms: _593  and  _594
REMARK  233  A    between atoms: _596  and  _598
REMARK  234  A    between atoms: _598  and  _599
REMARK  235  A    between atoms: _598  and  _601
REMARK  236  A    between atoms: _601  and  _602
REMARK  237  A    between atoms: _608  and  _610
REMARK  238  A    between atoms: _610  and  _611
REMARK  239  A    between atoms: _610  and  _613
REMARK  240  A    between atoms: _613  and  _614
REMARK  241  A    between atoms: _617  and  _619
REMARK  242  A    between atoms: _619  and  _620
REMARK  243  A    between atoms: _619  and  _622
REMARK  244  A    between atoms: _622  and  _623
REMARK  245  A    between atoms: _625  and  _627
REMARK  246  A    between atoms: _627  and  _628
REMARK  247  A    between atoms: _627  and  _630
REMARK  248  A    between atoms: _630  and  _631
REMARK  249  A    between atoms: _636  and  _638
REMARK  250  A    between atoms: _638  and  _639
REMARK  251  A    between atoms: _638  and  _641
REMARK  252  A    between atoms: _641  and  _642
REMARK  253  A    between atoms: _647  and  _649
REMARK  254  A    between atoms: _649  and  _650
REMARK  255  A    between atoms: _649  and  _652
REMARK  256  A    between atoms: _652  and  _653
REMARK  257  A    between atoms: _656  and  _658
REMARK  258  A    between atoms: _658  and  _659
REMARK  259  A    between atoms: _662  and  _664
REMARK  260  A    between atoms: _664  and  _665
REMARK  261  A    between atoms: _664  and  _667
REMARK  262  A    between atoms: _667  and  _668
REMARK  263  A    between atoms: _673  and  _674
REMARK  264  A    between atoms: _676  and  _678
REMARK  265  A    between atoms: _678  and  _679
REMARK  266  A    between atoms: _678  and  _681
REMARK  267  A    between atoms: _681  and  _682
REMARK  268  A    between atoms: _687  and  _688
REMARK  269  A    between atoms: _690  and  _692
REMARK  270  A    between atoms: _692  and  _693
REMARK  271  A    between atoms: _692  and  _695
REMARK  272  A    between atoms: _698  and  _700
REMARK  273  A    between atoms: _700  and  _701
REMARK  274  A    between atoms: _700  and  _703
REMARK  275  A    between atoms: _703  and  _704
REMARK  276  A    between atoms: _709  and  _711
REMARK  277  A    between atoms: _711  and  _712
REMARK  278  A    between atoms: _715  and  _717
REMARK  279  A    between atoms: _717  and  _718
REMARK  280  A    between atoms: _717  and  _720
REMARK  281  A    between atoms: _720  and  _721
REMARK  282  A    between atoms: _721  and  _722
REMARK  283  A    between atoms: _722  and  _723
REMARK  284  A    between atoms: _732  and  _734
REMARK  285  A    between atoms: _734  and  _735
REMARK  286  A    between atoms: _734  and  _737
REMARK  287  A    between atoms: _737  and  _738
REMARK  288  A    between atoms: _741  and  _743
REMARK  289  A    between atoms: _743  and  _744
REMARK  290  A    between atoms: _743  and  _746
REMARK  291  A    between atoms: _746  and  _747
REMARK  292  A    between atoms: _750  and  _752
REMARK  293  A    between atoms: _752  and  _753
REMARK  294  A    between atoms: _752  and  _755
REMARK  295  A    between atoms: _755  and  _756
REMARK  296  A    between atoms: _797  and  _800
REMARK                            x       y       z     vdW  Elec       q    Type
REMARK                         _______ _______ _______ _____ _____    ______ ____
ROOT
ATOM      1  O   HOH     1       3.576  17.167   8.172  0.00  0.00    +0.000 OA
ENDROOT
TORSDOF 0
REMARK  Name = ../refined-set-2016/1b1h/1b1h_pocket.pdb
REMARK  296 active torsions:
REMARK  status: ('A' for Active; 'I' for Inactive)
REMARK    1  A    between atoms: _1  and  _3
REMARK    2  A    between atoms: _3  and  _4
REMARK    3  A    between atoms: _3  and  _6
REMARK    4  A    between atoms: _6  and  _7
REMARK    5  A    between atoms: _12  and  _14
REMARK    6  A    between atoms: _14  and  _15
REMARK    7  A    between atoms: _17  and  _19
REMARK    8  A    between atoms: _19  and  _20
REMARK    9  A    between atoms: _19  and  _22
REMARK   10  A    between atoms: _22  and  _23
REMARK   11  A    between atoms: _25  and  _27
REMARK   12  A    between atoms: _27  and  _28
REMARK   13  A    between atoms: _27  and  _30
REMARK   14  A    between atoms: _30  and  _31
REMARK   15  A    between atoms: _31  and  _32
REMARK   16  A    between atoms: _37  and  _39
REMARK   17  A    between atoms: _39  and  _40
REMARK   18  A    between atoms: _39  and  _42
REMARK   19  A    between atoms: _42  and  _43
REMARK   20  A    between atoms: _46  and  _48
REMARK   21  A    between atoms: _48  and  _49
REMARK   22  A    between atoms: _48  and  _51
REMARK   23  A    between atoms: _51  and  _52
REMARK   24  A    between atoms: _52  and  _53
REMARK   25  A    between atoms: _56  and  _58
REMARK   26  A    between atoms: _58  and  _59
REMARK   27  A    between atoms: _61  and  _63
REMARK   28  A    between atoms: _63  and  _64
REMARK   29  A    between atoms: _63  and  _66
REMARK   30  A    between atoms: _70  and  _71
REMARK   31  A    between atoms: _76  and  _78
REMARK   32  A    between atoms: _78  and  _79
REMARK   33  A    between atoms: _78  and  _81
REMARK   34  A    between atoms: _81  and  _82
REMARK   35  A    between atoms: _82  and  _83
REMARK   36  A    between atoms: _86  and  _88
REMARK   37  A    between atoms: _88  and  _89
REMARK   38  A    between atoms: _88  and  _91
REMARK   39  A    between atoms: _91  and  _92
REMARK   40  A    between atoms: _94  and  _96
REMARK   41  A    between atoms: _96  and  _97
REMARK   42  A    between atoms: _96  and  _99
REMARK   43  A    between atoms: _99  and  _100
REMARK   44  A    between atoms: _105  and  _107
REMARK   45  A    between atoms: _107  and  _108
REMARK   46  A    between atoms: _107  and  _110
REMARK   47  A    between atoms: _110  and  _111
REMARK   48  A    between atoms: _111  and  _112
REMARK   49  A    between atoms: _112  and  _113
REMARK   50  A    between atoms: _123  and  _124
REMARK   51  A    between atoms: _129  and  _131
REMARK   52  A    between atoms: _131  and  _132
REMARK   53  A    between atoms: _131  and  _134
REMARK   54  A    between atoms: _134  and  _135
REMARK   55  A    between atoms: _140  and  _141
REMARK   56  A    between atoms: _143  and  _145
REMARK   57  A    between atoms: _145  and  _146
REMARK   58  A    between atoms: _145  and  _148
REMARK   59  A    between atoms: _148  and  _149
REMARK   60  A    between atoms: _154  and  _155
REMARK   61  A    between atoms: _157  and  _159
REMARK   62  A    between atoms: _159  and  _160
REMARK   63  A    between atoms: _159  and  _162
REMARK   64  A    between atoms: _165  and  _167
REMARK   65  A    between atoms: _167  and  _168
REMARK   66  A    between atoms: _167  and  _170
REMARK   67  A    between atoms: _170  and  _171
REMARK   68  A    between atoms: _177  and  _178
REMARK   69  A    between atoms: _183  and  _185
REMARK   70  A    between atoms: _185  and  _186
REMARK   71  A    between atoms: _185  and  _188
REMARK   72  A    between atoms: _188  and  _189
REMARK   73  A    between atoms: _191  and  _193
REMARK   74  A    between atoms: _193  and  _194
REMARK   75  A    between atoms: _193  and  _196
REMARK   76  A    between atoms: _196  and  _197
REMARK   77  A    between atoms: _197  and  _198
REMARK   78  A    between atoms: _201  and  _203
REMARK   79  A    between atoms: _203  and  _204
REMARK   80  A    between atoms: _203  and  _206
REMARK   81  A    between atoms: _206  and  _207
REMARK   82  A    between atoms: _212  and  _213
REMARK   83  A    between atoms: _215  and  _217
REMARK   84  A    between atoms: _217  and  _218
REMARK   85  A    between atoms: _217  and  _220
REMARK   86  A    between atoms: _220  and  _221
REMARK   87  A    between atoms: _226  and  _228
REMARK   88  A    between atoms: _228  and  _229
REMARK   89  A    between atoms: _228  and  _231
REMARK   90  A    between atoms: _231  and  _232
REMARK   91  A    between atoms: _237  and  _239
REMARK   92  A    between atoms: _239  and  _240
REMARK   93  A    between atoms: _239  and  _242
REMARK   94  A    between atoms: _242  and  _243
REMARK   95  A    between atoms: _243  and  _244
REMARK   96  A    between atoms: _246  and  _248
REMARK   97  A    between atoms: _248  and  _249
REMARK   98  A    between atoms: _248  and  _251
REMARK   99  A    between atoms: _251  and  _252
REMARK  100  A    between atoms: _257  and  _258
REMARK  101  A    between atoms: _260  and  _262
REMARK  102  A    between atoms: _262  and  _263
REMARK  103  A    between atoms: _262  and  _265
REMARK  104  A    between atoms: _265  and  _266
REMARK  105  A    between atoms: _269  and  _271
REMARK  106  A    between atoms: _271  and  _272
REMARK  107  A    between atoms: _271  and  _274
REMARK  108  A    between atoms: _274  and  _275
REMARK  109  A    between atoms: _275  and  _558
REMARK  110  A    between atoms: _276  and  _278
REMARK  111  A    between atoms: _278  and  _279
REMARK  112  A    between atoms: _278  and  _281
REMARK  113  A    between atoms: _281  and  _282
REMARK  114  A    between atoms: _285  and  _287
REMARK  115  A    between atoms: _287  and  _288
REMARK  116  A    between atoms: _287  and  _290
REMARK  117  A    between atoms: _290  and  _291
REMARK  118  A    between atoms: _296  and  _297
REMARK  119  A    between atoms: _299  and  _301
REMARK  120  A    between atoms: _301  and  _302
REMARK  121  A    between atoms: _301  and  _304
REMARK  122  A    between atoms: _304  and  _305
REMARK  123  A    between atoms: _310  and  _311
REMARK  124  A    between atoms: _313  and  _315
REMARK  125  A    between atoms: _315  and  _316
REMARK  126  A    between atoms: _315  and  _318
REMARK  127  A    between atoms: _318  and  _319
REMARK  128  A    between atoms: _319  and  _320
REMARK  129  A    between atoms: _323  and  _325
REMARK  130  A    between atoms: _325  and  _326
REMARK  131  A    between atoms: _325  and  _328
REMARK  132  A    between atoms: _328  and  _329
REMARK  133  A    between atoms: _334  and  _335
REMARK  134  A    between atoms: _337  and  _339
REMARK  135  A    between atoms: _339  and  _340
REMARK  136  A    between atoms: _339  and  _342
REMARK  137  A    between atoms: _342  and  _343
REMARK  138  A    between atoms: _348  and  _350
REMARK  139  A    between atoms: _350  and  _351
REMARK  140  A    between atoms: _350  and  _353
REMARK  141  A    between atoms: _353  and  _354
REMARK  142  A    between atoms: _357  and  _359
REMARK  143  A    between atoms: _359  and  _360
REMARK  144  A    between atoms: _359  and  _362
REMARK  145  A    between atoms: _362  and  _363
REMARK  146  A    between atoms: _368  and  _370
REMARK  147  A    between atoms: _370  and  _371
REMARK  148  A    between atoms: _370  and  _373
REMARK  149  A    between atoms: _373  and  _374
REMARK  150  A    between atoms: _384  and  _386
REMARK  151  A    between atoms: _386  and  _387
REMARK  152  A    between atoms: _386  and  _389
REMARK  153  A    between atoms: _389  and  _390
REMARK  154  A    between atoms: _390  and  _391
REMARK  155  A    between atoms: _391  and  _392
REMARK  156  A    between atoms: _392  and  _393
REMARK  157  A    between atoms: _397  and  _399
REMARK  158  A    between atoms: _399  and  _400
REMARK  159  A    between atoms: _399  and  _402
REMARK  160  A    between atoms: _402  and  _403
REMARK  161  A    between atoms: _406  and  _408
REMARK  162  A    between atoms: _408  and  _409
REMARK  163  A    between atoms: _408  and  _411
REMARK  164  A    between atoms: _411  and  _412
REMARK  165  A    between atoms: _418  and  _420
REMARK  166  A    between atoms: _420  and  _421
REMARK  167  A    between atoms: _420  and  _423
REMARK  168  A    between atoms: _423  and  _424
REMARK  169  A    between atoms: _427  and  _429
REMARK  170  A    between atoms: _429  and  _430
REMARK  171  A    between atoms: _429  and  _432
REMARK  172  A    between atoms: _432  and  _433
REMARK  173  A    between atoms: _436  and  _438
REMARK  174  A    between atoms: _438  and  _439
REMARK  175  A    between atoms: _438  and  _441
REMARK  176  A    between atoms: _441  and  _442
REMARK  177  A    between atoms: _445  and  _447
REMARK  178  A    between atoms: _447  and  _448
REMARK  179  A    between atoms: _447  and  _450
REMARK  180  A    between atoms: _450  and  _451
REMARK  181  A    between atoms: _451  and  _452
REMARK  182  A    between atoms: _452  and  _453
REMARK  183  A    between atoms: _462  and  _464
REMARK  184  A    between atoms: _464  and  _465
REMARK  185  A    between atoms: _464  and  _467
REMARK  186  A    between atoms: _467  and  _468
REMARK  187  A    between atoms: _473  and  _475
REMARK  188  A    between atoms: _475  and  _476
REMARK  189  A    between atoms: _475  and  _478
REMARK  190  A    between atoms: _478  and  _479
REMARK  191  A    between atoms: _479  and  _480
REMARK  192  A    between atoms: _485  and  _487
REMARK  193  A    between atoms: _487  and  _488
REMARK  194  A    between atoms: _490  and  _492
REMARK  195  A    between atoms: _492  and  _493
REMARK  196  A    between atoms: _492  and  _495
REMARK  197  A    between atoms: _495  and  _496
REMARK  198  A    between atoms: _502  and  _504
REMARK  199  A    between atoms: _504  and  _505
REMARK  200  A    between atoms: _508  and  _510
REMARK  201  A    between atoms: _510  and  _511
REMARK  202  A    between atoms: _510  and  _513
REMARK  203  A    between atoms: _513  and  _514
REMARK  204  A    between atoms: _514  and  _515
REMARK  205  A    between atoms: _515  and  _516
REMARK  206  A    between atoms: _525  and  _527
REMARK  207  A    between atoms: _527  and  _528
REMARK  208  A    between atoms: _531  and  _533
REMARK  209  A    between atoms: _533  and  _534
REMARK  210  A    between atoms: _536  and  _538
REMARK  211  A    between atoms: _538  and  _539
REMARK  212  A    between atoms: _538  and  _541
REMARK  213  A    between atoms: _541  and  _542
REMARK  214  A    between atoms: _552  and  _554
REMARK  215  A    between atoms: _554  and  _555
REMARK  216  A    between atoms: _554  and  _557
REMARK  217  A    between atoms: _557  and  _558
REMARK  218  A    between atoms: _559  and  _561
REMARK  219  A    between atoms: _561  and  _562
REMARK  220  A    between atoms: _565  and  _567
REMARK  221  A    between atoms: _567  and  _568
REMARK  222  A    between atoms: _567  and  _570
REMARK  223  A    between atoms: _570  and  _571
REMARK  224  A    between atoms: _574  and  _576
REMARK  225  A    between atoms: _576  and  _577
REMARK  226  A    between atoms: _576  and  _579
REMARK  227  A    between atoms: _579  and  _580
REMARK  228  A    between atoms: _585  and  _586
REMARK  229  A    between atoms: _588  and  _590
REMARK  230  A    between atoms: _590  and  _591
REMARK  231  A    between atoms: _590  and  _593
REMARK  232  A    between atoms: _593  and  _594
REMARK  233  A    between atoms: _596  and  _598
REMARK  234  A    between atoms: _598  and  _599
REMARK  235  A    between atoms: _598  and  _601
REMARK  236  A    between atoms: _601  and  _602
REMARK  237  A    between atoms: _608  and  _610
REMARK  238  A    between atoms: _610  and  _611
REMARK  239  A    between atoms: _610  and  _613
REMARK  240  A    between atoms: _613  and  _614
REMARK  241  A    between atoms: _617  and  _619
REMARK  242  A    between atoms: _619  and  _620
REMARK  243  A    between atoms: _619  and  _622
REMARK  244  A    between atoms: _622  and  _623
REMARK  245  A    between atoms: _625  and  _627
REMARK  246  A    between atoms: _627  and  _628
REMARK  247  A    between atoms: _627  and  _630
REMARK  248  A    between atoms: _630  and  _631
REMARK  249  A    between atoms: _636  and  _638
REMARK  250  A    between atoms: _638  and  _639
REMARK  251  A    between atoms: _638  and  _641
REMARK  252  A    between atoms: _641  and  _642
REMARK  253  A    between atoms: _647  and  _649
REMARK  254  A    between atoms: _649  and  _650
REMARK  255  A    between atoms: _649  and  _652
REMARK  256  A    between atoms: _652  and  _653
REMARK  257  A    between atoms: _656  and  _658
REMARK  258  A    between atoms: _658  and  _659
REMARK  259  A    between atoms: _662  and  _664
REMARK  260  A    between atoms: _664  and  _665
REMARK  261  A    between atoms: _664  and  _667
REMARK  262  A    between atoms: _667  and  _668
REMARK  263  A    between atoms: _673  and  _674
REMARK  264  A    between atoms: _676  and  _678
REMARK  265  A    between atoms: _678  and  _679
REMARK  266  A    between atoms: _678  and  _681
REMARK  267  A    between atoms: _681  and  _682
REMARK  268  A    between atoms: _687  and  _688
REMARK  269  A    between atoms: _690  and  _692
REMARK  270  A    between atoms: _692  and  _693
REMARK  271  A    between atoms: _692  and  _695
REMARK  272  A    between atoms: _698  and  _700
REMARK  273  A    between atoms: _700  and  _701
REMARK  274  A    between atoms: _700  and  _703
REMARK  275  A    between atoms: _703  and  _704
REMARK  276  A    between atoms: _709  and  _711
REMARK  277  A    between atoms: _711  and  _712
REMARK  278  A    between atoms: _715  and  _717
REMARK  279  A    between atoms: _717  and  _718
REMARK  280  A    between atoms: _717  and  _720
REMARK  281  A    between atoms: _720  and  _721
REMARK  282  A    between atoms: _721  and  _722
REMARK  283  A    between atoms: _722  and  _723
REMARK  284  A    between atoms: _732  and  _734
REMARK  285  A    between atoms: _734  and  _735
REMARK  286  A    between atoms: _734  and  _737
REMARK  287  A    between atoms: _737  and  _738
REMARK  288  A    between atoms: _741  and  _743
REMARK  289  A    between atoms: _743  and  _744
REMARK  290  A    between atoms: _743  and  _746
REMARK  291  A    between atoms: _746  and  _747
REMARK  292  A    between atoms: _750  and  _752
REMARK  293  A    between atoms: _752  and  _753
REMARK  294  A    between atoms: _752  and  _755
REMARK  295  A    between atoms: _755  and  _756
REMARK  296  A    between atoms: _797  and  _800
REMARK                            x       y       z     vdW  Elec       q    Type
REMARK                         _______ _______ _______ _____ _____    ______ ____
ROOT
ATOM      1  O   HOH     1      -7.869  23.809   9.756  0.00  0.00    +0.000 OA
ENDROOT
TORSDOF 0
REMARK  Name = ../refined-set-2016/1b1h/1b1h_pocket.pdb
REMARK  296 active torsions:
REMARK  status: ('A' for Active; 'I' for Inactive)
REMARK    1  A    between atoms: _1  and  _3
REMARK    2  A    between atoms: _3  and  _4
REMARK    3  A    between atoms: _3  and  _6
REMARK    4  A    between atoms: _6  and  _7
REMARK    5  A    between atoms: _12  and  _14
REMARK    6  A    between atoms: _14  and  _15
REMARK    7  A    between atoms: _17  and  _19
REMARK    8  A    between atoms: _19  and  _20
REMARK    9  A    between atoms: _19  and  _22
REMARK   10  A    between atoms: _22  and  _23
REMARK   11  A    between atoms: _25  and  _27
REMARK   12  A    between atoms: _27  and  _28
REMARK   13  A    between atoms: _27  and  _30
REMARK   14  A    between atoms: _30  and  _31
REMARK   15  A    between atoms: _31  and  _32
REMARK   16  A    between atoms: _37  and  _39
REMARK   17  A    between atoms: _39  and  _40
REMARK   18  A    between atoms: _39  and  _42
REMARK   19  A    between atoms: _42  and  _43
REMARK   20  A    between atoms: _46  and  _48
REMARK   21  A    between atoms: _48  and  _49
REMARK   22  A    between atoms: _48  and  _51
REMARK   23  A    between atoms: _51  and  _52
REMARK   24  A    between atoms: _52  and  _53
REMARK   25  A    between atoms: _56  and  _58
REMARK   26  A    between atoms: _58  and  _59
REMARK   27  A    between atoms: _61  and  _63
REMARK   28  A    between atoms: _63  and  _64
REMARK   29  A    between atoms: _63  and  _66
REMARK   30  A    between atoms: _70  and  _71
REMARK   31  A    between atoms: _76  and  _78
REMARK   32  A    between atoms: _78  and  _79
REMARK   33  A    between atoms: _78  and  _81
REMARK   34  A    between atoms: _81  and  _82
REMARK   35  A    between atoms: _82  and  _83
REMARK   36  A    between atoms: _86  and  _88
REMARK   37  A    between atoms: _88  and  _89
REMARK   38  A    between atoms: _88  and  _91
REMARK   39  A    between atoms: _91  and  _92
REMARK   40  A    between atoms: _94  and  _96
REMARK   41  A    between atoms: _96  and  _97
REMARK   42  A    between atoms: _96  and  _99
REMARK   43  A    between atoms: _99  and  _100
REMARK   44  A    between atoms: _105  and  _107
REMARK   45  A    between atoms: _107  and  _108
REMARK   46  A    between atoms: _107  and  _110
REMARK   47  A    between atoms: _110  and  _111
REMARK   48  A    between atoms: _111  and  _112
REMARK   49  A    between atoms: _112  and  _113
REMARK   50  A    between atoms: _123  and  _124
REMARK   51  A    between atoms: _129  and  _131
REMARK   52  A    between atoms: _131  and  _132
REMARK   53  A    between atoms: _131  and  _134
REMARK   54  A    between atoms: _134  and  _135
REMARK   55  A    between atoms: _140  and  _141
REMARK   56  A    between atoms: _143  and  _145
REMARK   57  A    between atoms: _145  and  _146
REMARK   58  A    between atoms: _145  and  _148
REMARK   59  A    between atoms: _148  and  _149
REMARK   60  A    between atoms: _154  and  _155
REMARK   61  A    between atoms: _157  and  _159
REMARK   62  A    between atoms: _159  and  _160
REMARK   63  A    between atoms: _159  and  _162
REMARK   64  A    between atoms: _165  and  _167
REMARK   65  A    between atoms: _167  and  _168
REMARK   66  A    between atoms: _167  and  _170
REMARK   67  A    between atoms: _170  and  _171
REMARK   68  A    between atoms: _177  and  _178
REMARK   69  A    between atoms: _183  and  _185
REMARK   70  A    between atoms: _185  and  _186
REMARK   71  A    between atoms: _185  and  _188
REMARK   72  A    between atoms: _188  and  _189
REMARK   73  A    between atoms: _191  and  _193
REMARK   74  A    between atoms: _193  and  _194
REMARK   75  A    between atoms: _193  and  _196
REMARK   76  A    between atoms: _196  and  _197
REMARK   77  A    between atoms: _197  and  _198
REMARK   78  A    between atoms: _201  and  _203
REMARK   79  A    between atoms: _203  and  _204
REMARK   80  A    between atoms: _203  and  _206
REMARK   81  A    between atoms: _206  and  _207
REMARK   82  A    between atoms: _212  and  _213
REMARK   83  A    between atoms: _215  and  _217
REMARK   84  A    between atoms: _217  and  _218
REMARK   85  A    between atoms: _217  and  _220
REMARK   86  A    between atoms: _220  and  _221
REMARK   87  A    between atoms: _226  and  _228
REMARK   88  A    between atoms: _228  and  _229
REMARK   89  A    between atoms: _228  and  _231
REMARK   90  A    between atoms: _231  and  _232
REMARK   91  A    between atoms: _237  and  _239
REMARK   92  A    between atoms: _239  and  _240
REMARK   93  A    between atoms: _239  and  _242
REMARK   94  A    between atoms: _242  and  _243
REMARK   95  A    between atoms: _243  and  _244
REMARK   96  A    between atoms: _246  and  _248
REMARK   97  A    between atoms: _248  and  _249
REMARK   98  A    between atoms: _248  and  _251
REMARK   99  A    between atoms: _251  and  _252
REMARK  100  A    between atoms: _257  and  _258
REMARK  101  A    between atoms: _260  and  _262
REMARK  102  A    between atoms: _262  and  _263
REMARK  103  A    between atoms: _262  and  _265
REMARK  104  A    between atoms: _265  and  _266
REMARK  105  A    between atoms: _269  and  _271
REMARK  106  A    between atoms: _271  and  _272
REMARK  107  A    between atoms: _271  and  _274
REMARK  108  A    between atoms: _274  and  _275
REMARK  109  A    between atoms: _275  and  _558
REMARK  110  A    between atoms: _276  and  _278
REMARK  111  A    between atoms: _278  and  _279
REMARK  112  A    between atoms: _278  and  _281
REMARK  113  A    between atoms: _281  and  _282
REMARK  114  A    between atoms: _285  and  _287
REMARK  115  A    between atoms: _287  and  _288
REMARK  116  A    between atoms: _287  and  _290
REMARK  117  A    between atoms: _290  and  _291
REMARK  118  A    between atoms: _296  and  _297
REMARK  119  A    between atoms: _299  and  _301
REMARK  120  A    between atoms: _301  and  _302
REMARK  121  A    between atoms: _301  and  _304
REMARK  122  A    between atoms: _304  and  _305
REMARK  123  A    between atoms: _310  and  _311
REMARK  124  A    between atoms: _313  and  _315
REMARK  125  A    between atoms: _315  and  _316
REMARK  126  A    between atoms: _315  and  _318
REMARK  127  A    between atoms: _318  and  _319
REMARK  128  A    between atoms: _319  and  _320
REMARK  129  A    between atoms: _323  and  _325
REMARK  130  A    between atoms: _325  and  _326
REMARK  131  A    between atoms: _325  and  _328
REMARK  132  A    between atoms: _328  and  _329
REMARK  133  A    between atoms: _334  and  _335
REMARK  134  A    between atoms: _337  and  _339
REMARK  135  A    between atoms: _339  and  _340
REMARK  136  A    between atoms: _339  and  _342
REMARK  137  A    between atoms: _342  and  _343
REMARK  138  A    between atoms: _348  and  _350
REMARK  139  A    between atoms: _350  and  _351
REMARK  140  A    between atoms: _350  and  _353
REMARK  141  A    between atoms: _353  and  _354
REMARK  142  A    between atoms: _357  and  _359
REMARK  143  A    between atoms: _359  and  _360
REMARK  144  A    between atoms: _359  and  _362
REMARK  145  A    between atoms: _362  and  _363
REMARK  146  A    between atoms: _368  and  _370
REMARK  147  A    between atoms: _370  and  _371
REMARK  148  A    between atoms: _370  and  _373
REMARK  149  A    between atoms: _373  and  _374
REMARK  150  A    between atoms: _384  and  _386
REMARK  151  A    between atoms: _386  and  _387
REMARK  152  A    between atoms: _386  and  _389
REMARK  153  A    between atoms: _389  and  _390
REMARK  154  A    between atoms: _390  and  _391
REMARK  155  A    between atoms: _391  and  _392
REMARK  156  A    between atoms: _392  and  _393
REMARK  157  A    between atoms: _397  and  _399
REMARK  158  A    between atoms: _399  and  _400
REMARK  159  A    between atoms: _399  and  _402
REMARK  160  A    between atoms: _402  and  _403
REMARK  161  A    between atoms: _406  and  _408
REMARK  162  A    between atoms: _408  and  _409
REMARK  163  A    between atoms: _408  and  _411
REMARK  164  A    between atoms: _411  and  _412
REMARK  165  A    between atoms: _418  and  _420
REMARK  166  A    between atoms: _420  and  _421
REMARK  167  A    between atoms: _420  and  _423
REMARK  168  A    between atoms: _423  and  _424
REMARK  169  A    between atoms: _427  and  _429
REMARK  170  A    between atoms: _429  and  _430
REMARK  171  A    between atoms: _429  and  _432
REMARK  172  A    between atoms: _432  and  _433
REMARK  173  A    between atoms: _436  and  _438
REMARK  174  A    between atoms: _438  and  _439
REMARK  175  A    between atoms: _438  and  _441
REMARK  176  A    between atoms: _441  and  _442
REMARK  177  A    between atoms: _445  and  _447
REMARK  178  A    between atoms: _447  and  _448
REMARK  179  A    between atoms: _447  and  _450
REMARK  180  A    between atoms: _450  and  _451
REMARK  181  A    between atoms: _451  and  _452
REMARK  182  A    between atoms: _452  and  _453
REMARK  183  A    between atoms: _462  and  _464
REMARK  184  A    between atoms: _464  and  _465
REMARK  185  A    between atoms: _464  and  _467
REMARK  186  A    between atoms: _467  and  _468
REMARK  187  A    between atoms: _473  and  _475
REMARK  188  A    between atoms: _475  and  _476
REMARK  189  A    between atoms: _475  and  _478
REMARK  190  A    between atoms: _478  and  _479
REMARK  191  A    between atoms: _479  and  _480
REMARK  192  A    between atoms: _485  and  _487
REMARK  193  A    between atoms: _487  and  _488
REMARK  194  A    between atoms: _490  and  _492
REMARK  195  A    between atoms: _492  and  _493
REMARK  196  A    between atoms: _492  and  _495
REMARK  197  A    between atoms: _495  and  _496
REMARK  198  A    between atoms: _502  and  _504
REMARK  199  A    between atoms: _504  and  _505
REMARK  200  A    between atoms: _508  and  _510
REMARK  201  A    between atoms: _510  and  _511
REMARK  202  A    between atoms: _510  and  _513
REMARK  203  A    between atoms: _513  and  _514
REMARK  204  A    between atoms: _514  and  _515
REMARK  205  A    between atoms: _515  and  _516
REMARK  206  A    between atoms: _525  and  _527
REMARK  207  A    between atoms: _527  and  _528
REMARK  208  A    between atoms: _531  and  _533
REMARK  209  A    between atoms: _533  and  _534
REMARK  210  A    between atoms: _536  and  _538
REMARK  211  A    between atoms: _538  and  _539
REMARK  212  A    between atoms: _538  and  _541
REMARK  213  A    between atoms: _541  and  _542
REMARK  214  A    between atoms: _552  and  _554
REMARK  215  A    between atoms: _554  and  _555
REMARK  216  A    between atoms: _554  and  _557
REMARK  217  A    between atoms: _557  and  _558
REMARK  218  A    between atoms: _559  and  _561
REMARK  219  A    between atoms: _561  and  _562
REMARK  220  A    between atoms: _565  and  _567
REMARK  221  A    between atoms: _567  and  _568
REMARK  222  A    between atoms: _567  and  _570
REMARK  223  A    between atoms: _570  and  _571
REMARK  224  A    between atoms: _574  and  _576
REMARK  225  A    between atoms: _576  and  _577
REMARK  226  A    between atoms: _576  and  _579
REMARK  227  A    between atoms: _579  and  _580
REMARK  228  A    between atoms: _585  and  _586
REMARK  229  A    between atoms: _588  and  _590
REMARK  230  A    between atoms: _590  and  _591
REMARK  231  A    between atoms: _590  and  _593
REMARK  232  A    between atoms: _593  and  _594
REMARK  233  A    between atoms: _596  and  _598
REMARK  234  A    between atoms: _598  and  _599
REMARK  235  A    between atoms: _598  and  _601
REMARK  236  A    between atoms: _601  and  _602
REMARK  237  A    between atoms: _608  and  _610
REMARK  238  A    between atoms: _610  and  _611
REMARK  239  A    between atoms: _610  and  _613
REMARK  240  A    between atoms: _613  and  _614
REMARK  241  A    between atoms: _617  and  _619
REMARK  242  A    between atoms: _619  and  _620
REMARK  243  A    between atoms: _619  and  _622
REMARK  244  A    between atoms: _622  and  _623
REMARK  245  A    between atoms: _625  and  _627
REMARK  246  A    between atoms: _627  and  _628
REMARK  247  A    between atoms: _627  and  _630
REMARK  248  A    between atoms: _630  and  _631
REMARK  249  A    between atoms: _636  and  _638
REMARK  250  A    between atoms: _638  and  _639
REMARK  251  A    between atoms: _638  and  _641
REMARK  252  A    between atoms: _641  and  _642
REMARK  253  A    between atoms: _647  and  _649
REMARK  254  A    between atoms: _649  and  _650
REMARK  255  A    between atoms: _649  and  _652
REMARK  256  A    between atoms: _652  and  _653
REMARK  257  A    between atoms: _656  and  _658
REMARK  258  A    between atoms: _658  and  _659
REMARK  259  A    between atoms: _662  and  _664
REMARK  260  A    between atoms: _664  and  _665
REMARK  261  A    between atoms: _664  and  _667
REMARK  262  A    between atoms: _667  and  _668
REMARK  263  A    between atoms: _673  and  _674
REMARK  264  A    between atoms: _676  and  _678
REMARK  265  A    between atoms: _678  and  _679
REMARK  266  A    between atoms: _678  and  _681
REMARK  267  A    between atoms: _681  and  _682
REMARK  268  A    between atoms: _687  and  _688
REMARK  269  A    between atoms: _690  and  _692
REMARK  270  A    between atoms: _692  and  _693
REMARK  271  A    between atoms: _692  and  _695
REMARK  272  A    between atoms: _698  and  _700
REMARK  273  A    between atoms: _700  and  _701
REMARK  274  A    between atoms: _700  and  _703
REMARK  275  A    between atoms: _703  and  _704
REMARK  276  A    between atoms: _709  and  _711
REMARK  277  A    between atoms: _711  and  _712
REMARK  278  A    between atoms: _715  and  _717
REMARK  279  A    between atoms: _717  and  _718
REMARK  280  A    between atoms: _717  and  _720
REMARK  281  A    between atoms: _720  and  _721
REMARK  282  A    between atoms: _721  and  _722
REMARK  283  A    between atoms: _722  and  _723
REMARK  284  A    between atoms: _732  and  _734
REMARK  285  A    between atoms: _734  and  _735
REMARK  286  A    between atoms: _734  and  _737
REMARK  287  A    between atoms: _737  and  _738
REMARK  288  A    between atoms: _741  and  _743
REMARK  289  A    between atoms: _743  and  _744
REMARK  290  A    between atoms: _743  and  _746
REMARK  291  A    between atoms: _746  and  _747
REMARK  292  A    between atoms: _750  and  _752
REMARK  293  A    between atoms: _752  and  _753
REMARK  294  A    between atoms: _752  and  _755
REMARK  295  A    between atoms: _755  and  _756
REMARK  296  A    between atoms: _797  and  _800
REMARK                            x       y       z     vdW  Elec       q    Type
REMARK                         _______ _______ _______ _____ _____    ______ ____
ROOT
ATOM      1  O   HOH     1       3.646  20.735  20.807  0.00  0.00    +0.000 OA
ENDROOT
TORSDOF 0
REMARK  Name = ../refined-set-2016/1b1h/1b1h_pocket.pdb
REMARK  296 active torsions:
REMARK  status: ('A' for Active; 'I' for Inactive)
REMARK    1  A    between atoms: _1  and  _3
REMARK    2  A    between atoms: _3  and  _4
REMARK    3  A    between atoms: _3  and  _6
REMARK    4  A    between atoms: _6  and  _7
REMARK    5  A    between atoms: _12  and  _14
REMARK    6  A    between atoms: _14  and  _15
REMARK    7  A    between atoms: _17  and  _19
REMARK    8  A    between atoms: _19  and  _20
REMARK    9  A    between atoms: _19  and  _22
REMARK   10  A    between atoms: _22  and  _23
REMARK   11  A    between atoms: _25  and  _27
REMARK   12  A    between atoms: _27  and  _28
REMARK   13  A    between atoms: _27  and  _30
REMARK   14  A    between atoms: _30  and  _31
REMARK   15  A    between atoms: _31  and  _32
REMARK   16  A    between atoms: _37  and  _39
REMARK   17  A    between atoms: _39  and  _40
REMARK   18  A    between atoms: _39  and  _42
REMARK   19  A    between atoms: _42  and  _43
REMARK   20  A    between atoms: _46  and  _48
REMARK   21  A    between atoms: _48  and  _49
REMARK   22  A    between atoms: _48  and  _51
REMARK   23  A    between atoms: _51  and  _52
REMARK   24  A    between atoms: _52  and  _53
REMARK   25  A    between atoms: _56  and  _58
REMARK   26  A    between atoms: _58  and  _59
REMARK   27  A    between atoms: _61  and  _63
REMARK   28  A    between atoms: _63  and  _64
REMARK   29  A    between atoms: _63  and  _66
REMARK   30  A    between atoms: _70  and  _71
REMARK   31  A    between atoms: _76  and  _78
REMARK   32  A    between atoms: _78  and  _79
REMARK   33  A    between atoms: _78  and  _81
REMARK   34  A    between atoms: _81  and  _82
REMARK   35  A    between atoms: _82  and  _83
REMARK   36  A    between atoms: _86  and  _88
REMARK   37  A    between atoms: _88  and  _89
REMARK   38  A    between atoms: _88  and  _91
REMARK   39  A    between atoms: _91  and  _92
REMARK   40  A    between atoms: _94  and  _96
REMARK   41  A    between atoms: _96  and  _97
REMARK   42  A    between atoms: _96  and  _99
REMARK   43  A    between atoms: _99  and  _100
REMARK   44  A    between atoms: _105  and  _107
REMARK   45  A    between atoms: _107  and  _108
REMARK   46  A    between atoms: _107  and  _110
REMARK   47  A    between atoms: _110  and  _111
REMARK   48  A    between atoms: _111  and  _112
REMARK   49  A    between atoms: _112  and  _113
REMARK   50  A    between atoms: _123  and  _124
REMARK   51  A    between atoms: _129  and  _131
REMARK   52  A    between atoms: _131  and  _132
REMARK   53  A    between atoms: _131  and  _134
REMARK   54  A    between atoms: _134  and  _135
REMARK   55  A    between atoms: _140  and  _141
REMARK   56  A    between atoms: _143  and  _145
REMARK   57  A    between atoms: _145  and  _146
REMARK   58  A    between atoms: _145  and  _148
REMARK   59  A    between atoms: _148  and  _149
REMARK   60  A    between atoms: _154  and  _155
REMARK   61  A    between atoms: _157  and  _159
REMARK   62  A    between atoms: _159  and  _160
REMARK   63  A    between atoms: _159  and  _162
REMARK   64  A    between atoms: _165  and  _167
REMARK   65  A    between atoms: _167  and  _168
REMARK   66  A    between atoms: _167  and  _170
REMARK   67  A    between atoms: _170  and  _171
REMARK   68  A    between atoms: _177  and  _178
REMARK   69  A    between atoms: _183  and  _185
REMARK   70  A    between atoms: _185  and  _186
REMARK   71  A    between atoms: _185  and  _188
REMARK   72  A    between atoms: _188  and  _189
REMARK   73  A    between atoms: _191  and  _193
REMARK   74  A    between atoms: _193  and  _194
REMARK   75  A    between atoms: _193  and  _196
REMARK   76  A    between atoms: _196  and  _197
REMARK   77  A    between atoms: _197  and  _198
REMARK   78  A    between atoms: _201  and  _203
REMARK   79  A    between atoms: _203  and  _204
REMARK   80  A    between atoms: _203  and  _206
REMARK   81  A    between atoms: _206  and  _207
REMARK   82  A    between atoms: _212  and  _213
REMARK   83  A    between atoms: _215  and  _217
REMARK   84  A    between atoms: _217  and  _218
REMARK   85  A    between atoms: _217  and  _220
REMARK   86  A    between atoms: _220  and  _221
REMARK   87  A    between atoms: _226  and  _228
REMARK   88  A    between atoms: _228  and  _229
REMARK   89  A    between atoms: _228  and  _231
REMARK   90  A    between atoms: _231  and  _232
REMARK   91  A    between atoms: _237  and  _239
REMARK   92  A    between atoms: _239  and  _240
REMARK   93  A    between atoms: _239  and  _242
REMARK   94  A    between atoms: _242  and  _243
REMARK   95  A    between atoms: _243  and  _244
REMARK   96  A    between atoms: _246  and  _248
REMARK   97  A    between atoms: _248  and  _249
REMARK   98  A    between atoms: _248  and  _251
REMARK   99  A    between atoms: _251  and  _252
REMARK  100  A    between atoms: _257  and  _258
REMARK  101  A    between atoms: _260  and  _262
REMARK  102  A    between atoms: _262  and  _263
REMARK  103  A    between atoms: _262  and  _265
REMARK  104  A    between atoms: _265  and  _266
REMARK  105  A    between atoms: _269  and  _271
REMARK  106  A    between atoms: _271  and  _272
REMARK  107  A    between atoms: _271  and  _274
REMARK  108  A    between atoms: _274  and  _275
REMARK  109  A    between atoms: _275  and  _558
REMARK  110  A    between atoms: _276  and  _278
REMARK  111  A    between atoms: _278  and  _279
REMARK  112  A    between atoms: _278  and  _281
REMARK  113  A    between atoms: _281  and  _282
REMARK  114  A    between atoms: _285  and  _287
REMARK  115  A    between atoms: _287  and  _288
REMARK  116  A    between atoms: _287  and  _290
REMARK  117  A    between atoms: _290  and  _291
REMARK  118  A    between atoms: _296  and  _297
REMARK  119  A    between atoms: _299  and  _301
REMARK  120  A    between atoms: _301  and  _302
REMARK  121  A    between atoms: _301  and  _304
REMARK  122  A    between atoms: _304  and  _305
REMARK  123  A    between atoms: _310  and  _311
REMARK  124  A    between atoms: _313  and  _315
REMARK  125  A    between atoms: _315  and  _316
REMARK  126  A    between atoms: _315  and  _318
REMARK  127  A    between atoms: _318  and  _319
REMARK  128  A    between atoms: _319  and  _320
REMARK  129  A    between atoms: _323  and  _325
REMARK  130  A    between atoms: _325  and  _326
REMARK  131  A    between atoms: _325  and  _328
REMARK  132  A    between atoms: _328  and  _329
REMARK  133  A    between atoms: _334  and  _335
REMARK  134  A    between atoms: _337  and  _339
REMARK  135  A    between atoms: _339  and  _340
REMARK  136  A    between atoms: _339  and  _342
REMARK  137  A    between atoms: _342  and  _343
REMARK  138  A    between atoms: _348  and  _350
REMARK  139  A    between atoms: _350  and  _351
REMARK  140  A    between atoms: _350  and  _353
REMARK  141  A    between atoms: _353  and  _354
REMARK  142  A    between atoms: _357  and  _359
REMARK  143  A    between atoms: _359  and  _360
REMARK  144  A    between atoms: _359  and  _362
REMARK  145  A    between atoms: _362  and  _363
REMARK  146  A    between atoms: _368  and  _370
REMARK  147  A    between atoms: _370  and  _371
REMARK  148  A    between atoms: _370  and  _373
REMARK  149  A    between atoms: _373  and  _374
REMARK  150  A    between atoms: _384  and  _386
REMARK  151  A    between atoms: _386  and  _387
REMARK  152  A    between atoms: _386  and  _389
REMARK  153  A    between atoms: _389  and  _390
REMARK  154  A    between atoms: _390  and  _391
REMARK  155  A    between atoms: _391  and  _392
REMARK  156  A    between atoms: _392  and  _393
REMARK  157  A    between atoms: _397  and  _399
REMARK  158  A    between atoms: _399  and  _400
REMARK  159  A    between atoms: _399  and  _402
REMARK  160  A    between atoms: _402  and  _403
REMARK  161  A    between atoms: _406  and  _408
REMARK  162  A    between atoms: _408  and  _409
REMARK  163  A    between atoms: _408  and  _411
REMARK  164  A    between atoms: _411  and  _412
REMARK  165  A    between atoms: _418  and  _420
REMARK  166  A    between atoms: _420  and  _421
REMARK  167  A    between atoms: _420  and  _423
REMARK  168  A    between atoms: _423  and  _424
REMARK  169  A    between atoms: _427  and  _429
REMARK  170  A    between atoms: _429  and  _430
REMARK  171  A    between atoms: _429  and  _432
REMARK  172  A    between atoms: _432  and  _433
REMARK  173  A    between atoms: _436  and  _438
REMARK  174  A    between atoms: _438  and  _439
REMARK  175  A    between atoms: _438  and  _441
REMARK  176  A    between atoms: _441  and  _442
REMARK  177  A    between atoms: _445  and  _447
REMARK  178  A    between atoms: _447  and  _448
REMARK  179  A    between atoms: _447  and  _450
REMARK  180  A    between atoms: _450  and  _451
REMARK  181  A    between atoms: _451  and  _452
REMARK  182  A    between atoms: _452  and  _453
REMARK  183  A    between atoms: _462  and  _464
REMARK  184  A    between atoms: _464  and  _465
REMARK  185  A    between atoms: _464  and  _467
REMARK  186  A    between atoms: _467  and  _468
REMARK  187  A    between atoms: _473  and  _475
REMARK  188  A    between atoms: _475  and  _476
REMARK  189  A    between atoms: _475  and  _478
REMARK  190  A    between atoms: _478  and  _479
REMARK  191  A    between atoms: _479  and  _480
REMARK  192  A    between atoms: _485  and  _487
REMARK  193  A    between atoms: _487  and  _488
REMARK  194  A    between atoms: _490  and  _492
REMARK  195  A    between atoms: _492  and  _493
REMARK  196  A    between atoms: _492  and  _495
REMARK  197  A    between atoms: _495  and  _496
REMARK  198  A    between atoms: _502  and  _504
REMARK  199  A    between atoms: _504  and  _505
REMARK  200  A    between atoms: _508  and  _510
REMARK  201  A    between atoms: _510  and  _511
REMARK  202  A    between atoms: _510  and  _513
REMARK  203  A    between atoms: _513  and  _514
REMARK  204  A    between atoms: _514  and  _515
REMARK  205  A    between atoms: _515  and  _516
REMARK  206  A    between atoms: _525  and  _527
REMARK  207  A    between atoms: _527  and  _528
REMARK  208  A    between atoms: _531  and  _533
REMARK  209  A    between atoms: _533  and  _534
REMARK  210  A    between atoms: _536  and  _538
REMARK  211  A    between atoms: _538  and  _539
REMARK  212  A    between atoms: _538  and  _541
REMARK  213  A    between atoms: _541  and  _542
REMARK  214  A    between atoms: _552  and  _554
REMARK  215  A    between atoms: _554  and  _555
REMARK  216  A    between atoms: _554  and  _557
REMARK  217  A    between atoms: _557  and  _558
REMARK  218  A    between atoms: _559  and  _561
REMARK  219  A    between atoms: _561  and  _562
REMARK  220  A    between atoms: _565  and  _567
REMARK  221  A    between atoms: _567  and  _568
REMARK  222  A    between atoms: _567  and  _570
REMARK  223  A    between atoms: _570  and  _571
REMARK  224  A    between atoms: _574  and  _576
REMARK  225  A    between atoms: _576  and  _577
REMARK  226  A    between atoms: _576  and  _579
REMARK  227  A    between atoms: _579  and  _580
REMARK  228  A    between atoms: _585  and  _586
REMARK  229  A    between atoms: _588  and  _590
REMARK  230  A    between atoms: _590  and  _591
REMARK  231  A    between atoms: _590  and  _593
REMARK  232  A    between atoms: _593  and  _594
REMARK  233  A    between atoms: _596  and  _598
REMARK  234  A    between atoms: _598  and  _599
REMARK  235  A    between atoms: _598  and  _601
REMARK  236  A    between atoms: _601  and  _602
REMARK  237  A    between atoms: _608  and  _610
REMARK  238  A    between atoms: _610  and  _611
REMARK  239  A    between atoms: _610  and  _613
REMARK  240  A    between atoms: _613  and  _614
REMARK  241  A    between atoms: _617  and  _619
REMARK  242  A    between atoms: _619  and  _620
REMARK  243  A    between atoms: _619  and  _622
REMARK  244  A    between atoms: _622  and  _623
REMARK  245  A    between atoms: _625  and  _627
REMARK  246  A    between atoms: _627  and  _628
REMARK  247  A    between atoms: _627  and  _630
REMARK  248  A    between atoms: _630  and  _631
REMARK  249  A    between atoms: _636  and  _638
REMARK  250  A    between atoms: _638  and  _639
REMARK  251  A    between atoms: _638  and  _641
REMARK  252  A    between atoms: _641  and  _642
REMARK  253  A    between atoms: _647  and  _649
REMARK  254  A    between atoms: _649  and  _650
REMARK  255  A    between atoms: _649  and  _652
REMARK  256  A    between atoms: _652  and  _653
REMARK  257  A    between atoms: _656  and  _658
REMARK  258  A    between atoms: _658  and  _659
REMARK  259  A    between atoms: _662  and  _664
REMARK  260  A    between atoms: _664  and  _665
REMARK  261  A    between atoms: _664  and  _667
REMARK  262  A    between atoms: _667  and  _668
REMARK  263  A    between atoms: _673  and  _674
REMARK  264  A    between atoms: _676  and  _678
REMARK  265  A    between atoms: _678  and  _679
REMARK  266  A    between atoms: _678  and  _681
REMARK  267  A    between atoms: _681  and  _682
REMARK  268  A    between atoms: _687  and  _688
REMARK  269  A    between atoms: _690  and  _692
REMARK  270  A    between atoms: _692  and  _693
REMARK  271  A    between atoms: _692  and  _695
REMARK  272  A    between atoms: _698  and  _700
REMARK  273  A    between atoms: _700  and  _701
REMARK  274  A    between atoms: _700  and  _703
REMARK  275  A    between atoms: _703  and  _704
REMARK  276  A    between atoms: _709  and  _711
REMARK  277  A    between atoms: _711  and  _712
REMARK  278  A    between atoms: _715  and  _717
REMARK  279  A    between atoms: _717  and  _718
REMARK  280  A    between atoms: _717  and  _720
REMARK  281  A    between atoms: _720  and  _721
REMARK  282  A    between atoms: _721  and  _722
REMARK  283  A    between atoms: _722  and  _723
REMARK  284  A    between atoms: _732  and  _734
REMARK  285  A    between atoms: _734  and  _735
REMARK  286  A    between atoms: _734  and  _737
REMARK  287  A    between atoms: _737  and  _738
REMARK  288  A    between atoms: _741  and  _743
REMARK  289  A    between atoms: _743  and  _744
REMARK  290  A    between atoms: _743  and  _746
REMARK  291  A    between atoms: _746  and  _747
REMARK  292  A    between atoms: _750  and  _752
REMARK  293  A    between atoms: _752  and  _753
REMARK  294  A    between atoms: _752  and  _755
REMARK  295  A    between atoms: _755  and  _756
REMARK  296  A    between atoms: _797  and  _800
REMARK                            x       y       z     vdW  Elec       q    Type
REMARK                         _______ _______ _______ _____ _____    ______ ____
ROOT
ATOM      1  O   HOH     1      11.438  13.985  16.819  0.00  0.00    +0.000 OA
ENDROOT
TORSDOF 0
REMARK  Name = ../refined-set-2016/1b1h/1b1h_pocket.pdb
REMARK  296 active torsions:
REMARK  status: ('A' for Active; 'I' for Inactive)
REMARK    1  A    between atoms: _1  and  _3
REMARK    2  A    between atoms: _3  and  _4
REMARK    3  A    between atoms: _3  and  _6
REMARK    4  A    between atoms: _6  and  _7
REMARK    5  A    between atoms: _12  and  _14
REMARK    6  A    between atoms: _14  and  _15
REMARK    7  A    between atoms: _17  and  _19
REMARK    8  A    between atoms: _19  and  _20
REMARK    9  A    between atoms: _19  and  _22
REMARK   10  A    between atoms: _22  and  _23
REMARK   11  A    between atoms: _25  and  _27
REMARK   12  A    between atoms: _27  and  _28
REMARK   13  A    between atoms: _27  and  _30
REMARK   14  A    between atoms: _30  and  _31
REMARK   15  A    between atoms: _31  and  _32
REMARK   16  A    between atoms: _37  and  _39
REMARK   17  A    between atoms: _39  and  _40
REMARK   18  A    between atoms: _39  and  _42
REMARK   19  A    between atoms: _42  and  _43
REMARK   20  A    between atoms: _46  and  _48
REMARK   21  A    between atoms: _48  and  _49
REMARK   22  A    between atoms: _48  and  _51
REMARK   23  A    between atoms: _51  and  _52
REMARK   24  A    between atoms: _52  and  _53
REMARK   25  A    between atoms: _56  and  _58
REMARK   26  A    between atoms: _58  and  _59
REMARK   27  A    between atoms: _61  and  _63
REMARK   28  A    between atoms: _63  and  _64
REMARK   29  A    between atoms: _63  and  _66
REMARK   30  A    between atoms: _70  and  _71
REMARK   31  A    between atoms: _76  and  _78
REMARK   32  A    between atoms: _78  and  _79
REMARK   33  A    between atoms: _78  and  _81
REMARK   34  A    between atoms: _81  and  _82
REMARK   35  A    between atoms: _82  and  _83
REMARK   36  A    between atoms: _86  and  _88
REMARK   37  A    between atoms: _88  and  _89
REMARK   38  A    between atoms: _88  and  _91
REMARK   39  A    between atoms: _91  and  _92
REMARK   40  A    between atoms: _94  and  _96
REMARK   41  A    between atoms: _96  and  _97
REMARK   42  A    between atoms: _96  and  _99
REMARK   43  A    between atoms: _99  and  _100
REMARK   44  A    between atoms: _105  and  _107
REMARK   45  A    between atoms: _107  and  _108
REMARK   46  A    between atoms: _107  and  _110
REMARK   47  A    between atoms: _110  and  _111
REMARK   48  A    between atoms: _111  and  _112
REMARK   49  A    between atoms: _112  and  _113
REMARK   50  A    between atoms: _123  and  _124
REMARK   51  A    between atoms: _129  and  _131
REMARK   52  A    between atoms: _131  and  _132
REMARK   53  A    between atoms: _131  and  _134
REMARK   54  A    between atoms: _134  and  _135
REMARK   55  A    between atoms: _140  and  _141
REMARK   56  A    between atoms: _143  and  _145
REMARK   57  A    between atoms: _145  and  _146
REMARK   58  A    between atoms: _145  and  _148
REMARK   59  A    between atoms: _148  and  _149
REMARK   60  A    between atoms: _154  and  _155
REMARK   61  A    between atoms: _157  and  _159
REMARK   62  A    between atoms: _159  and  _160
REMARK   63  A    between atoms: _159  and  _162
REMARK   64  A    between atoms: _165  and  _167
REMARK   65  A    between atoms: _167  and  _168
REMARK   66  A    between atoms: _167  and  _170
REMARK   67  A    between atoms: _170  and  _171
REMARK   68  A    between atoms: _177  and  _178
REMARK   69  A    between atoms: _183  and  _185
REMARK   70  A    between atoms: _185  and  _186
REMARK   71  A    between atoms: _185  and  _188
REMARK   72  A    between atoms: _188  and  _189
REMARK   73  A    between atoms: _191  and  _193
REMARK   74  A    between atoms: _193  and  _194
REMARK   75  A    between atoms: _193  and  _196
REMARK   76  A    between atoms: _196  and  _197
REMARK   77  A    between atoms: _197  and  _198
REMARK   78  A    between atoms: _201  and  _203
REMARK   79  A    between atoms: _203  and  _204
REMARK   80  A    between atoms: _203  and  _206
REMARK   81  A    between atoms: _206  and  _207
REMARK   82  A    between atoms: _212  and  _213
REMARK   83  A    between atoms: _215  and  _217
REMARK   84  A    between atoms: _217  and  _218
REMARK   85  A    between atoms: _217  and  _220
REMARK   86  A    between atoms: _220  and  _221
REMARK   87  A    between atoms: _226  and  _228
REMARK   88  A    between atoms: _228  and  _229
REMARK   89  A    between atoms: _228  and  _231
REMARK   90  A    between atoms: _231  and  _232
REMARK   91  A    between atoms: _237  and  _239
REMARK   92  A    between atoms: _239  and  _240
REMARK   93  A    between atoms: _239  and  _242
REMARK   94  A    between atoms: _242  and  _243
REMARK   95  A    between atoms: _243  and  _244
REMARK   96  A    between atoms: _246  and  _248
REMARK   97  A    between atoms: _248  and  _249
REMARK   98  A    between atoms: _248  and  _251
REMARK   99  A    between atoms: _251  and  _252
REMARK  100  A    between atoms: _257  and  _258
REMARK  101  A    between atoms: _260  and  _262
REMARK  102  A    between atoms: _262  and  _263
REMARK  103  A    between atoms: _262  and  _265
REMARK  104  A    between atoms: _265  and  _266
REMARK  105  A    between atoms: _269  and  _271
REMARK  106  A    between atoms: _271  and  _272
REMARK  107  A    between atoms: _271  and  _274
REMARK  108  A    between atoms: _274  and  _275
REMARK  109  A    between atoms: _275  and  _558
REMARK  110  A    between atoms: _276  and  _278
REMARK  111  A    between atoms: _278  and  _279
REMARK  112  A    between atoms: _278  and  _281
REMARK  113  A    between atoms: _281  and  _282
REMARK  114  A    between atoms: _285  and  _287
REMARK  115  A    between atoms: _287  and  _288
REMARK  116  A    between atoms: _287  and  _290
REMARK  117  A    between atoms: _290  and  _291
REMARK  118  A    between atoms: _296  and  _297
REMARK  119  A    between atoms: _299  and  _301
REMARK  120  A    between atoms: _301  and  _302
REMARK  121  A    between atoms: _301  and  _304
REMARK  122  A    between atoms: _304  and  _305
REMARK  123  A    between atoms: _310  and  _311
REMARK  124  A    between atoms: _313  and  _315
REMARK  125  A    between atoms: _315  and  _316
REMARK  126  A    between atoms: _315  and  _318
REMARK  127  A    between atoms: _318  and  _319
REMARK  128  A    between atoms: _319  and  _320
REMARK  129  A    between atoms: _323  and  _325
REMARK  130  A    between atoms: _325  and  _326
REMARK  131  A    between atoms: _325  and  _328
REMARK  132  A    between atoms: _328  and  _329
REMARK  133  A    between atoms: _334  and  _335
REMARK  134  A    between atoms: _337  and  _339
REMARK  135  A    between atoms: _339  and  _340
REMARK  136  A    between atoms: _339  and  _342
REMARK  137  A    between atoms: _342  and  _343
REMARK  138  A    between atoms: _348  and  _350
REMARK  139  A    between atoms: _350  and  _351
REMARK  140  A    between atoms: _350  and  _353
REMARK  141  A    between atoms: _353  and  _354
REMARK  142  A    between atoms: _357  and  _359
REMARK  143  A    between atoms: _359  and  _360
REMARK  144  A    between atoms: _359  and  _362
REMARK  145  A    between atoms: _362  and  _363
REMARK  146  A    between atoms: _368  and  _370
REMARK  147  A    between atoms: _370  and  _371
REMARK  148  A    between atoms: _370  and  _373
REMARK  149  A    between atoms: _373  and  _374
REMARK  150  A    between atoms: _384  and  _386
REMARK  151  A    between atoms: _386  and  _387
REMARK  152  A    between atoms: _386  and  _389
REMARK  153  A    between atoms: _389  and  _390
REMARK  154  A    between atoms: _390  and  _391
REMARK  155  A    between atoms: _391  and  _392
REMARK  156  A    between atoms: _392  and  _393
REMARK  157  A    between atoms: _397  and  _399
REMARK  158  A    between atoms: _399  and  _400
REMARK  159  A    between atoms: _399  and  _402
REMARK  160  A    between atoms: _402  and  _403
REMARK  161  A    between atoms: _406  and  _408
REMARK  162  A    between atoms: _408  and  _409
REMARK  163  A    between atoms: _408  and  _411
REMARK  164  A    between atoms: _411  and  _412
REMARK  165  A    between atoms: _418  and  _420
REMARK  166  A    between atoms: _420  and  _421
REMARK  167  A    between atoms: _420  and  _423
REMARK  168  A    between atoms: _423  and  _424
REMARK  169  A    between atoms: _427  and  _429
REMARK  170  A    between atoms: _429  and  _430
REMARK  171  A    between atoms: _429  and  _432
REMARK  172  A    between atoms: _432  and  _433
REMARK  173  A    between atoms: _436  and  _438
REMARK  174  A    between atoms: _438  and  _439
REMARK  175  A    between atoms: _438  and  _441
REMARK  176  A    between atoms: _441  and  _442
REMARK  177  A    between atoms: _445  and  _447
REMARK  178  A    between atoms: _447  and  _448
REMARK  179  A    between atoms: _447  and  _450
REMARK  180  A    between atoms: _450  and  _451
REMARK  181  A    between atoms: _451  and  _452
REMARK  182  A    between atoms: _452  and  _453
REMARK  183  A    between atoms: _462  and  _464
REMARK  184  A    between atoms: _464  and  _465
REMARK  185  A    between atoms: _464  and  _467
REMARK  186  A    between atoms: _467  and  _468
REMARK  187  A    between atoms: _473  and  _475
REMARK  188  A    between atoms: _475  and  _476
REMARK  189  A    between atoms: _475  and  _478
REMARK  190  A    between atoms: _478  and  _479
REMARK  191  A    between atoms: _479  and  _480
REMARK  192  A    between atoms: _485  and  _487
REMARK  193  A    between atoms: _487  and  _488
REMARK  194  A    between atoms: _490  and  _492
REMARK  195  A    between atoms: _492  and  _493
REMARK  196  A    between atoms: _492  and  _495
REMARK  197  A    between atoms: _495  and  _496
REMARK  198  A    between atoms: _502  and  _504
REMARK  199  A    between atoms: _504  and  _505
REMARK  200  A    between atoms: _508  and  _510
REMARK  201  A    between atoms: _510  and  _511
REMARK  202  A    between atoms: _510  and  _513
REMARK  203  A    between atoms: _513  and  _514
REMARK  204  A    between atoms: _514  and  _515
REMARK  205  A    between atoms: _515  and  _516
REMARK  206  A    between atoms: _525  and  _527
REMARK  207  A    between atoms: _527  and  _528
REMARK  208  A    between atoms: _531  and  _533
REMARK  209  A    between atoms: _533  and  _534
REMARK  210  A    between atoms: _536  and  _538
REMARK  211  A    between atoms: _538  and  _539
REMARK  212  A    between atoms: _538  and  _541
REMARK  213  A    between atoms: _541  and  _542
REMARK  214  A    between atoms: _552  and  _554
REMARK  215  A    between atoms: _554  and  _555
REMARK  216  A    between atoms: _554  and  _557
REMARK  217  A    between atoms: _557  and  _558
REMARK  218  A    between atoms: _559  and  _561
REMARK  219  A    between atoms: _561  and  _562
REMARK  220  A    between atoms: _565  and  _567
REMARK  221  A    between atoms: _567  and  _568
REMARK  222  A    between atoms: _567  and  _570
REMARK  223  A    between atoms: _570  and  _571
REMARK  224  A    between atoms: _574  and  _576
REMARK  225  A    between atoms: _576  and  _577
REMARK  226  A    between atoms: _576  and  _579
REMARK  227  A    between atoms: _579  and  _580
REMARK  228  A    between atoms: _585  and  _586
REMARK  229  A    between atoms: _588  and  _590
REMARK  230  A    between atoms: _590  and  _591
REMARK  231  A    between atoms: _590  and  _593
REMARK  232  A    between atoms: _593  and  _594
REMARK  233  A    between atoms: _596  and  _598
REMARK  234  A    between atoms: _598  and  _599
REMARK  235  A    between atoms: _598  and  _601
REMARK  236  A    between atoms: _601  and  _602
REMARK  237  A    between atoms: _608  and  _610
REMARK  238  A    between atoms: _610  and  _611
REMARK  239  A    between atoms: _610  and  _613
REMARK  240  A    between atoms: _613  and  _614
REMARK  241  A    between atoms: _617  and  _619
REMARK  242  A    between atoms: _619  and  _620
REMARK  243  A    between atoms: _619  and  _622
REMARK  244  A    between atoms: _622  and  _623
REMARK  245  A    between atoms: _625  and  _627
REMARK  246  A    between atoms: _627  and  _628
REMARK  247  A    between atoms: _627  and  _630
REMARK  248  A    between atoms: _630  and  _631
REMARK  249  A    between atoms: _636  and  _638
REMARK  250  A    between atoms: _638  and  _639
REMARK  251  A    between atoms: _638  and  _641
REMARK  252  A    between atoms: _641  and  _642
REMARK  253  A    between atoms: _647  and  _649
REMARK  254  A    between atoms: _649  and  _650
REMARK  255  A    between atoms: _649  and  _652
REMARK  256  A    between atoms: _652  and  _653
REMARK  257  A    between atoms: _656  and  _658
REMARK  258  A    between atoms: _658  and  _659
REMARK  259  A    between atoms: _662  and  _664
REMARK  260  A    between atoms: _664  and  _665
REMARK  261  A    between atoms: _664  and  _667
REMARK  262  A    between atoms: _667  and  _668
REMARK  263  A    between atoms: _673  and  _674
REMARK  264  A    between atoms: _676  and  _678
REMARK  265  A    between atoms: _678  and  _679
REMARK  266  A    between atoms: _678  and  _681
REMARK  267  A    between atoms: _681  and  _682
REMARK  268  A    between atoms: _687  and  _688
REMARK  269  A    between atoms: _690  and  _692
REMARK  270  A    between atoms: _692  and  _693
REMARK  271  A    between atoms: _692  and  _695
REMARK  272  A    between atoms: _698  and  _700
REMARK  273  A    between atoms: _700  and  _701
REMARK  274  A    between atoms: _700  and  _703
REMARK  275  A    between atoms: _703  and  _704
REMARK  276  A    between atoms: _709  and  _711
REMARK  277  A    between atoms: _711  and  _712
REMARK  278  A    between atoms: _715  and  _717
REMARK  279  A    between atoms: _717  and  _718
REMARK  280  A    between atoms: _717  and  _720
REMARK  281  A    between atoms: _720  and  _721
REMARK  282  A    between atoms: _721  and  _722
REMARK  283  A    between atoms: _722  and  _723
REMARK  284  A    between atoms: _732  and  _734
REMARK  285  A    between atoms: _734  and  _735
REMARK  286  A    between atoms: _734  and  _737
REMARK  287  A    between atoms: _737  and  _738
REMARK  288  A    between atoms: _741  and  _743
REMARK  289  A    between atoms: _743  and  _744
REMARK  290  A    between atoms: _743  and  _746
REMARK  291  A    between atoms: _746  and  _747
REMARK  292  A    between atoms: _750  and  _752
REMARK  293  A    between atoms: _752  and  _753
REMARK  294  A    between atoms: _752  and  _755
REMARK  295  A    between atoms: _755  and  _756
REMARK  296  A    between atoms: _797  and  _800
REMARK                            x       y       z     vdW  Elec       q    Type
REMARK                         _______ _______ _______ _____ _____    ______ ____
ROOT
ATOM      1  O   HOH     1      -9.486  21.726   9.134  0.00  0.00    +0.000 OA
ENDROOT
TORSDOF 0
REMARK  Name = ../refined-set-2016/1b1h/1b1h_pocket.pdb
REMARK  296 active torsions:
REMARK  status: ('A' for Active; 'I' for Inactive)
REMARK    1  A    between atoms: _1  and  _3
REMARK    2  A    between atoms: _3  and  _4
REMARK    3  A    between atoms: _3  and  _6
REMARK    4  A    between atoms: _6  and  _7
REMARK    5  A    between atoms: _12  and  _14
REMARK    6  A    between atoms: _14  and  _15
REMARK    7  A    between atoms: _17  and  _19
REMARK    8  A    between atoms: _19  and  _20
REMARK    9  A    between atoms: _19  and  _22
REMARK   10  A    between atoms: _22  and  _23
REMARK   11  A    between atoms: _25  and  _27
REMARK   12  A    between atoms: _27  and  _28
REMARK   13  A    between atoms: _27  and  _30
REMARK   14  A    between atoms: _30  and  _31
REMARK   15  A    between atoms: _31  and  _32
REMARK   16  A    between atoms: _37  and  _39
REMARK   17  A    between atoms: _39  and  _40
REMARK   18  A    between atoms: _39  and  _42
REMARK   19  A    between atoms: _42  and  _43
REMARK   20  A    between atoms: _46  and  _48
REMARK   21  A    between atoms: _48  and  _49
REMARK   22  A    between atoms: _48  and  _51
REMARK   23  A    between atoms: _51  and  _52
REMARK   24  A    between atoms: _52  and  _53
REMARK   25  A    between atoms: _56  and  _58
REMARK   26  A    between atoms: _58  and  _59
REMARK   27  A    between atoms: _61  and  _63
REMARK   28  A    between atoms: _63  and  _64
REMARK   29  A    between atoms: _63  and  _66
REMARK   30  A    between atoms: _70  and  _71
REMARK   31  A    between atoms: _76  and  _78
REMARK   32  A    between atoms: _78  and  _79
REMARK   33  A    between atoms: _78  and  _81
REMARK   34  A    between atoms: _81  and  _82
REMARK   35  A    between atoms: _82  and  _83
REMARK   36  A    between atoms: _86  and  _88
REMARK   37  A    between atoms: _88  and  _89
REMARK   38  A    between atoms: _88  and  _91
REMARK   39  A    between atoms: _91  and  _92
REMARK   40  A    between atoms: _94  and  _96
REMARK   41  A    between atoms: _96  and  _97
REMARK   42  A    between atoms: _96  and  _99
REMARK   43  A    between atoms: _99  and  _100
REMARK   44  A    between atoms: _105  and  _107
REMARK   45  A    between atoms: _107  and  _108
REMARK   46  A    between atoms: _107  and  _110
REMARK   47  A    between atoms: _110  and  _111
REMARK   48  A    between atoms: _111  and  _112
REMARK   49  A    between atoms: _112  and  _113
REMARK   50  A    between atoms: _123  and  _124
REMARK   51  A    between atoms: _129  and  _131
REMARK   52  A    between atoms: _131  and  _132
REMARK   53  A    between atoms: _131  and  _134
REMARK   54  A    between atoms: _134  and  _135
REMARK   55  A    between atoms: _140  and  _141
REMARK   56  A    between atoms: _143  and  _145
REMARK   57  A    between atoms: _145  and  _146
REMARK   58  A    between atoms: _145  and  _148
REMARK   59  A    between atoms: _148  and  _149
REMARK   60  A    between atoms: _154  and  _155
REMARK   61  A    between atoms: _157  and  _159
REMARK   62  A    between atoms: _159  and  _160
REMARK   63  A    between atoms: _159  and  _162
REMARK   64  A    between atoms: _165  and  _167
REMARK   65  A    between atoms: _167  and  _168
REMARK   66  A    between atoms: _167  and  _170
REMARK   67  A    between atoms: _170  and  _171
REMARK   68  A    between atoms: _177  and  _178
REMARK   69  A    between atoms: _183  and  _185
REMARK   70  A    between atoms: _185  and  _186
REMARK   71  A    between atoms: _185  and  _188
REMARK   72  A    between atoms: _188  and  _189
REMARK   73  A    between atoms: _191  and  _193
REMARK   74  A    between atoms: _193  and  _194
REMARK   75  A    between atoms: _193  and  _196
REMARK   76  A    between atoms: _196  and  _197
REMARK   77  A    between atoms: _197  and  _198
REMARK   78  A    between atoms: _201  and  _203
REMARK   79  A    between atoms: _203  and  _204
REMARK   80  A    between atoms: _203  and  _206
REMARK   81  A    between atoms: _206  and  _207
REMARK   82  A    between atoms: _212  and  _213
REMARK   83  A    between atoms: _215  and  _217
REMARK   84  A    between atoms: _217  and  _218
REMARK   85  A    between atoms: _217  and  _220
REMARK   86  A    between atoms: _220  and  _221
REMARK   87  A    between atoms: _226  and  _228
REMARK   88  A    between atoms: _228  and  _229
REMARK   89  A    between atoms: _228  and  _231
REMARK   90  A    between atoms: _231  and  _232
REMARK   91  A    between atoms: _237  and  _239
REMARK   92  A    between atoms: _239  and  _240
REMARK   93  A    between atoms: _239  and  _242
REMARK   94  A    between atoms: _242  and  _243
REMARK   95  A    between atoms: _243  and  _244
REMARK   96  A    between atoms: _246  and  _248
REMARK   97  A    between atoms: _248  and  _249
REMARK   98  A    between atoms: _248  and  _251
REMARK   99  A    between atoms: _251  and  _252
REMARK  100  A    between atoms: _257  and  _258
REMARK  101  A    between atoms: _260  and  _262
REMARK  102  A    between atoms: _262  and  _263
REMARK  103  A    between atoms: _262  and  _265
REMARK  104  A    between atoms: _265  and  _266
REMARK  105  A    between atoms: _269  and  _271
REMARK  106  A    between atoms: _271  and  _272
REMARK  107  A    between atoms: _271  and  _274
REMARK  108  A    between atoms: _274  and  _275
REMARK  109  A    between atoms: _275  and  _558
REMARK  110  A    between atoms: _276  and  _278
REMARK  111  A    between atoms: _278  and  _279
REMARK  112  A    between atoms: _278  and  _281
REMARK  113  A    between atoms: _281  and  _282
REMARK  114  A    between atoms: _285  and  _287
REMARK  115  A    between atoms: _287  and  _288
REMARK  116  A    between atoms: _287  and  _290
REMARK  117  A    between atoms: _290  and  _291
REMARK  118  A    between atoms: _296  and  _297
REMARK  119  A    between atoms: _299  and  _301
REMARK  120  A    between atoms: _301  and  _302
REMARK  121  A    between atoms: _301  and  _304
REMARK  122  A    between atoms: _304  and  _305
REMARK  123  A    between atoms: _310  and  _311
REMARK  124  A    between atoms: _313  and  _315
REMARK  125  A    between atoms: _315  and  _316
REMARK  126  A    between atoms: _315  and  _318
REMARK  127  A    between atoms: _318  and  _319
REMARK  128  A    between atoms: _319  and  _320
REMARK  129  A    between atoms: _323  and  _325
REMARK  130  A    between atoms: _325  and  _326
REMARK  131  A    between atoms: _325  and  _328
REMARK  132  A    between atoms: _328  and  _329
REMARK  133  A    between atoms: _334  and  _335
REMARK  134  A    between atoms: _337  and  _339
REMARK  135  A    between atoms: _339  and  _340
REMARK  136  A    between atoms: _339  and  _342
REMARK  137  A    between atoms: _342  and  _343
REMARK  138  A    between atoms: _348  and  _350
REMARK  139  A    between atoms: _350  and  _351
REMARK  140  A    between atoms: _350  and  _353
REMARK  141  A    between atoms: _353  and  _354
REMARK  142  A    between atoms: _357  and  _359
REMARK  143  A    between atoms: _359  and  _360
REMARK  144  A    between atoms: _359  and  _362
REMARK  145  A    between atoms: _362  and  _363
REMARK  146  A    between atoms: _368  and  _370
REMARK  147  A    between atoms: _370  and  _371
REMARK  148  A    between atoms: _370  and  _373
REMARK  149  A    between atoms: _373  and  _374
REMARK  150  A    between atoms: _384  and  _386
REMARK  151  A    between atoms: _386  and  _387
REMARK  152  A    between atoms: _386  and  _389
REMARK  153  A    between atoms: _389  and  _390
REMARK  154  A    between atoms: _390  and  _391
REMARK  155  A    between atoms: _391  and  _392
REMARK  156  A    between atoms: _392  and  _393
REMARK  157  A    between atoms: _397  and  _399
REMARK  158  A    between atoms: _399  and  _400
REMARK  159  A    between atoms: _399  and  _402
REMARK  160  A    between atoms: _402  and  _403
REMARK  161  A    between atoms: _406  and  _408
REMARK  162  A    between atoms: _408  and  _409
REMARK  163  A    between atoms: _408  and  _411
REMARK  164  A    between atoms: _411  and  _412
REMARK  165  A    between atoms: _418  and  _420
REMARK  166  A    between atoms: _420  and  _421
REMARK  167  A    between atoms: _420  and  _423
REMARK  168  A    between atoms: _423  and  _424
REMARK  169  A    between atoms: _427  and  _429
REMARK  170  A    between atoms: _429  and  _430
REMARK  171  A    between atoms: _429  and  _432
REMARK  172  A    between atoms: _432  and  _433
REMARK  173  A    between atoms: _436  and  _438
REMARK  174  A    between atoms: _438  and  _439
REMARK  175  A    between atoms: _438  and  _441
REMARK  176  A    between atoms: _441  and  _442
REMARK  177  A    between atoms: _445  and  _447
REMARK  178  A    between atoms: _447  and  _448
REMARK  179  A    between atoms: _447  and  _450
REMARK  180  A    between atoms: _450  and  _451
REMARK  181  A    between atoms: _451  and  _452
REMARK  182  A    between atoms: _452  and  _453
REMARK  183  A    between atoms: _462  and  _464
REMARK  184  A    between atoms: _464  and  _465
REMARK  185  A    between atoms: _464  and  _467
REMARK  186  A    between atoms: _467  and  _468
REMARK  187  A    between atoms: _473  and  _475
REMARK  188  A    between atoms: _475  and  _476
REMARK  189  A    between atoms: _475  and  _478
REMARK  190  A    between atoms: _478  and  _479
REMARK  191  A    between atoms: _479  and  _480
REMARK  192  A    between atoms: _485  and  _487
REMARK  193  A    between atoms: _487  and  _488
REMARK  194  A    between atoms: _490  and  _492
REMARK  195  A    between atoms: _492  and  _493
REMARK  196  A    between atoms: _492  and  _495
REMARK  197  A    between atoms: _495  and  _496
REMARK  198  A    between atoms: _502  and  _504
REMARK  199  A    between atoms: _504  and  _505
REMARK  200  A    between atoms: _508  and  _510
REMARK  201  A    between atoms: _510  and  _511
REMARK  202  A    between atoms: _510  and  _513
REMARK  203  A    between atoms: _513  and  _514
REMARK  204  A    between atoms: _514  and  _515
REMARK  205  A    between atoms: _515  and  _516
REMARK  206  A    between atoms: _525  and  _527
REMARK  207  A    between atoms: _527  and  _528
REMARK  208  A    between atoms: _531  and  _533
REMARK  209  A    between atoms: _533  and  _534
REMARK  210  A    between atoms: _536  and  _538
REMARK  211  A    between atoms: _538  and  _539
REMARK  212  A    between atoms: _538  and  _541
REMARK  213  A    between atoms: _541  and  _542
REMARK  214  A    between atoms: _552  and  _554
REMARK  215  A    between atoms: _554  and  _555
REMARK  216  A    between atoms: _554  and  _557
REMARK  217  A    between atoms: _557  and  _558
REMARK  218  A    between atoms: _559  and  _561
REMARK  219  A    between atoms: _561  and  _562
REMARK  220  A    between atoms: _565  and  _567
REMARK  221  A    between atoms: _567  and  _568
REMARK  222  A    between atoms: _567  and  _570
REMARK  223  A    between atoms: _570  and  _571
REMARK  224  A    between atoms: _574  and  _576
REMARK  225  A    between atoms: _576  and  _577
REMARK  226  A    between atoms: _576  and  _579
REMARK  227  A    between atoms: _579  and  _580
REMARK  228  A    between atoms: _585  and  _586
REMARK  229  A    between atoms: _588  and  _590
REMARK  230  A    between atoms: _590  and  _591
REMARK  231  A    between atoms: _590  and  _593
REMARK  232  A    between atoms: _593  and  _594
REMARK  233  A    between atoms: _596  and  _598
REMARK  234  A    between atoms: _598  and  _599
REMARK  235  A    between atoms: _598  and  _601
REMARK  236  A    between atoms: _601  and  _602
REMARK  237  A    between atoms: _608  and  _610
REMARK  238  A    between atoms: _610  and  _611
REMARK  239  A    between atoms: _610  and  _613
REMARK  240  A    between atoms: _613  and  _614
REMARK  241  A    between atoms: _617  and  _619
REMARK  242  A    between atoms: _619  and  _620
REMARK  243  A    between atoms: _619  and  _622
REMARK  244  A    between atoms: _622  and  _623
REMARK  245  A    between atoms: _625  and  _627
REMARK  246  A    between atoms: _627  and  _628
REMARK  247  A    between atoms: _627  and  _630
REMARK  248  A    between atoms: _630  and  _631
REMARK  249  A    between atoms: _636  and  _638
REMARK  250  A    between atoms: _638  and  _639
REMARK  251  A    between atoms: _638  and  _641
REMARK  252  A    between atoms: _641  and  _642
REMARK  253  A    between atoms: _647  and  _649
REMARK  254  A    between atoms: _649  and  _650
REMARK  255  A    between atoms: _649  and  _652
REMARK  256  A    between atoms: _652  and  _653
REMARK  257  A    between atoms: _656  and  _658
REMARK  258  A    between atoms: _658  and  _659
REMARK  259  A    between atoms: _662  and  _664
REMARK  260  A    between atoms: _664  and  _665
REMARK  261  A    between atoms: _664  and  _667
REMARK  262  A    between atoms: _667  and  _668
REMARK  263  A    between atoms: _673  and  _674
REMARK  264  A    between atoms: _676  and  _678
REMARK  265  A    between atoms: _678  and  _679
REMARK  266  A    between atoms: _678  and  _681
REMARK  267  A    between atoms: _681  and  _682
REMARK  268  A    between atoms: _687  and  _688
REMARK  269  A    between atoms: _690  and  _692
REMARK  270  A    between atoms: _692  and  _693
REMARK  271  A    between atoms: _692  and  _695
REMARK  272  A    between atoms: _698  and  _700
REMARK  273  A    between atoms: _700  and  _701
REMARK  274  A    between atoms: _700  and  _703
REMARK  275  A    between atoms: _703  and  _704
REMARK  276  A    between atoms: _709  and  _711
REMARK  277  A    between atoms: _711  and  _712
REMARK  278  A    between atoms: _715  and  _717
REMARK  279  A    between atoms: _717  and  _718
REMARK  280  A    between atoms: _717  and  _720
REMARK  281  A    between atoms: _720  and  _721
REMARK  282  A    between atoms: _721  and  _722
REMARK  283  A    between atoms: _722  and  _723
REMARK  284  A    between atoms: _732  and  _734
REMARK  285  A    between atoms: _734  and  _735
REMARK  286  A    between atoms: _734  and  _737
REMARK  287  A    between atoms: _737  and  _738
REMARK  288  A    between atoms: _741  and  _743
REMARK  289  A    between atoms: _743  and  _744
REMARK  290  A    between atoms: _743  and  _746
REMARK  291  A    between atoms: _746  and  _747
REMARK  292  A    between atoms: _750  and  _752
REMARK  293  A    between atoms: _752  and  _753
REMARK  294  A    between atoms: _752  and  _755
REMARK  295  A    between atoms: _755  and  _756
REMARK  296  A    between atoms: _797  and  _800
REMARK                            x       y       z     vdW  Elec       q    Type
REMARK                         _______ _______ _______ _____ _____    ______ ____
ROOT
ATOM      1  O   HOH     1       8.201  22.658  20.704  0.00  0.00    +0.000 OA
ENDROOT
TORSDOF 0
REMARK  Name = ../refined-set-2016/1b1h/1b1h_pocket.pdb
REMARK  296 active torsions:
REMARK  status: ('A' for Active; 'I' for Inactive)
REMARK    1  A    between atoms: _1  and  _3
REMARK    2  A    between atoms: _3  and  _4
REMARK    3  A    between atoms: _3  and  _6
REMARK    4  A    between atoms: _6  and  _7
REMARK    5  A    between atoms: _12  and  _14
REMARK    6  A    between atoms: _14  and  _15
REMARK    7  A    between atoms: _17  and  _19
REMARK    8  A    between atoms: _19  and  _20
REMARK    9  A    between atoms: _19  and  _22
REMARK   10  A    between atoms: _22  and  _23
REMARK   11  A    between atoms: _25  and  _27
REMARK   12  A    between atoms: _27  and  _28
REMARK   13  A    between atoms: _27  and  _30
REMARK   14  A    between atoms: _30  and  _31
REMARK   15  A    between atoms: _31  and  _32
REMARK   16  A    between atoms: _37  and  _39
REMARK   17  A    between atoms: _39  and  _40
REMARK   18  A    between atoms: _39  and  _42
REMARK   19  A    between atoms: _42  and  _43
REMARK   20  A    between atoms: _46  and  _48
REMARK   21  A    between atoms: _48  and  _49
REMARK   22  A    between atoms: _48  and  _51
REMARK   23  A    between atoms: _51  and  _52
REMARK   24  A    between atoms: _52  and  _53
REMARK   25  A    between atoms: _56  and  _58
REMARK   26  A    between atoms: _58  and  _59
REMARK   27  A    between atoms: _61  and  _63
REMARK   28  A    between atoms: _63  and  _64
REMARK   29  A    between atoms: _63  and  _66
REMARK   30  A    between atoms: _70  and  _71
REMARK   31  A    between atoms: _76  and  _78
REMARK   32  A    between atoms: _78  and  _79
REMARK   33  A    between atoms: _78  and  _81
REMARK   34  A    between atoms: _81  and  _82
REMARK   35  A    between atoms: _82  and  _83
REMARK   36  A    between atoms: _86  and  _88
REMARK   37  A    between atoms: _88  and  _89
REMARK   38  A    between atoms: _88  and  _91
REMARK   39  A    between atoms: _91  and  _92
REMARK   40  A    between atoms: _94  and  _96
REMARK   41  A    between atoms: _96  and  _97
REMARK   42  A    between atoms: _96  and  _99
REMARK   43  A    between atoms: _99  and  _100
REMARK   44  A    between atoms: _105  and  _107
REMARK   45  A    between atoms: _107  and  _108
REMARK   46  A    between atoms: _107  and  _110
REMARK   47  A    between atoms: _110  and  _111
REMARK   48  A    between atoms: _111  and  _112
REMARK   49  A    between atoms: _112  and  _113
REMARK   50  A    between atoms: _123  and  _124
REMARK   51  A    between atoms: _129  and  _131
REMARK   52  A    between atoms: _131  and  _132
REMARK   53  A    between atoms: _131  and  _134
REMARK   54  A    between atoms: _134  and  _135
REMARK   55  A    between atoms: _140  and  _141
REMARK   56  A    between atoms: _143  and  _145
REMARK   57  A    between atoms: _145  and  _146
REMARK   58  A    between atoms: _145  and  _148
REMARK   59  A    between atoms: _148  and  _149
REMARK   60  A    between atoms: _154  and  _155
REMARK   61  A    between atoms: _157  and  _159
REMARK   62  A    between atoms: _159  and  _160
REMARK   63  A    between atoms: _159  and  _162
REMARK   64  A    between atoms: _165  and  _167
REMARK   65  A    between atoms: _167  and  _168
REMARK   66  A    between atoms: _167  and  _170
REMARK   67  A    between atoms: _170  and  _171
REMARK   68  A    between atoms: _177  and  _178
REMARK   69  A    between atoms: _183  and  _185
REMARK   70  A    between atoms: _185  and  _186
REMARK   71  A    between atoms: _185  and  _188
REMARK   72  A    between atoms: _188  and  _189
REMARK   73  A    between atoms: _191  and  _193
REMARK   74  A    between atoms: _193  and  _194
REMARK   75  A    between atoms: _193  and  _196
REMARK   76  A    between atoms: _196  and  _197
REMARK   77  A    between atoms: _197  and  _198
REMARK   78  A    between atoms: _201  and  _203
REMARK   79  A    between atoms: _203  and  _204
REMARK   80  A    between atoms: _203  and  _206
REMARK   81  A    between atoms: _206  and  _207
REMARK   82  A    between atoms: _212  and  _213
REMARK   83  A    between atoms: _215  and  _217
REMARK   84  A    between atoms: _217  and  _218
REMARK   85  A    between atoms: _217  and  _220
REMARK   86  A    between atoms: _220  and  _221
REMARK   87  A    between atoms: _226  and  _228
REMARK   88  A    between atoms: _228  and  _229
REMARK   89  A    between atoms: _228  and  _231
REMARK   90  A    between atoms: _231  and  _232
REMARK   91  A    between atoms: _237  and  _239
REMARK   92  A    between atoms: _239  and  _240
REMARK   93  A    between atoms: _239  and  _242
REMARK   94  A    between atoms: _242  and  _243
REMARK   95  A    between atoms: _243  and  _244
REMARK   96  A    between atoms: _246  and  _248
REMARK   97  A    between atoms: _248  and  _249
REMARK   98  A    between atoms: _248  and  _251
REMARK   99  A    between atoms: _251  and  _252
REMARK  100  A    between atoms: _257  and  _258
REMARK  101  A    between atoms: _260  and  _262
REMARK  102  A    between atoms: _262  and  _263
REMARK  103  A    between atoms: _262  and  _265
REMARK  104  A    between atoms: _265  and  _266
REMARK  105  A    between atoms: _269  and  _271
REMARK  106  A    between atoms: _271  and  _272
REMARK  107  A    between atoms: _271  and  _274
REMARK  108  A    between atoms: _274  and  _275
REMARK  109  A    between atoms: _275  and  _558
REMARK  110  A    between atoms: _276  and  _278
REMARK  111  A    between atoms: _278  and  _279
REMARK  112  A    between atoms: _278  and  _281
REMARK  113  A    between atoms: _281  and  _282
REMARK  114  A    between atoms: _285  and  _287
REMARK  115  A    between atoms: _287  and  _288
REMARK  116  A    between atoms: _287  and  _290
REMARK  117  A    between atoms: _290  and  _291
REMARK  118  A    between atoms: _296  and  _297
REMARK  119  A    between atoms: _299  and  _301
REMARK  120  A    between atoms: _301  and  _302
REMARK  121  A    between atoms: _301  and  _304
REMARK  122  A    between atoms: _304  and  _305
REMARK  123  A    between atoms: _310  and  _311
REMARK  124  A    between atoms: _313  and  _315
REMARK  125  A    between atoms: _315  and  _316
REMARK  126  A    between atoms: _315  and  _318
REMARK  127  A    between atoms: _318  and  _319
REMARK  128  A    between atoms: _319  and  _320
REMARK  129  A    between atoms: _323  and  _325
REMARK  130  A    between atoms: _325  and  _326
REMARK  131  A    between atoms: _325  and  _328
REMARK  132  A    between atoms: _328  and  _329
REMARK  133  A    between atoms: _334  and  _335
REMARK  134  A    between atoms: _337  and  _339
REMARK  135  A    between atoms: _339  and  _340
REMARK  136  A    between atoms: _339  and  _342
REMARK  137  A    between atoms: _342  and  _343
REMARK  138  A    between atoms: _348  and  _350
REMARK  139  A    between atoms: _350  and  _351
REMARK  140  A    between atoms: _350  and  _353
REMARK  141  A    between atoms: _353  and  _354
REMARK  142  A    between atoms: _357  and  _359
REMARK  143  A    between atoms: _359  and  _360
REMARK  144  A    between atoms: _359  and  _362
REMARK  145  A    between atoms: _362  and  _363
REMARK  146  A    between atoms: _368  and  _370
REMARK  147  A    between atoms: _370  and  _371
REMARK  148  A    between atoms: _370  and  _373
REMARK  149  A    between atoms: _373  and  _374
REMARK  150  A    between atoms: _384  and  _386
REMARK  151  A    between atoms: _386  and  _387
REMARK  152  A    between atoms: _386  and  _389
REMARK  153  A    between atoms: _389  and  _390
REMARK  154  A    between atoms: _390  and  _391
REMARK  155  A    between atoms: _391  and  _392
REMARK  156  A    between atoms: _392  and  _393
REMARK  157  A    between atoms: _397  and  _399
REMARK  158  A    between atoms: _399  and  _400
REMARK  159  A    between atoms: _399  and  _402
REMARK  160  A    between atoms: _402  and  _403
REMARK  161  A    between atoms: _406  and  _408
REMARK  162  A    between atoms: _408  and  _409
REMARK  163  A    between atoms: _408  and  _411
REMARK  164  A    between atoms: _411  and  _412
REMARK  165  A    between atoms: _418  and  _420
REMARK  166  A    between atoms: _420  and  _421
REMARK  167  A    between atoms: _420  and  _423
REMARK  168  A    between atoms: _423  and  _424
REMARK  169  A    between atoms: _427  and  _429
REMARK  170  A    between atoms: _429  and  _430
REMARK  171  A    between atoms: _429  and  _432
REMARK  172  A    between atoms: _432  and  _433
REMARK  173  A    between atoms: _436  and  _438
REMARK  174  A    between atoms: _438  and  _439
REMARK  175  A    between atoms: _438  and  _441
REMARK  176  A    between atoms: _441  and  _442
REMARK  177  A    between atoms: _445  and  _447
REMARK  178  A    between atoms: _447  and  _448
REMARK  179  A    between atoms: _447  and  _450
REMARK  180  A    between atoms: _450  and  _451
REMARK  181  A    between atoms: _451  and  _452
REMARK  182  A    between atoms: _452  and  _453
REMARK  183  A    between atoms: _462  and  _464
REMARK  184  A    between atoms: _464  and  _465
REMARK  185  A    between atoms: _464  and  _467
REMARK  186  A    between atoms: _467  and  _468
REMARK  187  A    between atoms: _473  and  _475
REMARK  188  A    between atoms: _475  and  _476
REMARK  189  A    between atoms: _475  and  _478
REMARK  190  A    between atoms: _478  and  _479
REMARK  191  A    between atoms: _479  and  _480
REMARK  192  A    between atoms: _485  and  _487
REMARK  193  A    between atoms: _487  and  _488
REMARK  194  A    between atoms: _490  and  _492
REMARK  195  A    between atoms: _492  and  _493
REMARK  196  A    between atoms: _492  and  _495
REMARK  197  A    between atoms: _495  and  _496
REMARK  198  A    between atoms: _502  and  _504
REMARK  199  A    between atoms: _504  and  _505
REMARK  200  A    between atoms: _508  and  _510
REMARK  201  A    between atoms: _510  and  _511
REMARK  202  A    between atoms: _510  and  _513
REMARK  203  A    between atoms: _513  and  _514
REMARK  204  A    between atoms: _514  and  _515
REMARK  205  A    between atoms: _515  and  _516
REMARK  206  A    between atoms: _525  and  _527
REMARK  207  A    between atoms: _527  and  _528
REMARK  208  A    between atoms: _531  and  _533
REMARK  209  A    between atoms: _533  and  _534
REMARK  210  A    between atoms: _536  and  _538
REMARK  211  A    between atoms: _538  and  _539
REMARK  212  A    between atoms: _538  and  _541
REMARK  213  A    between atoms: _541  and  _542
REMARK  214  A    between atoms: _552  and  _554
REMARK  215  A    between atoms: _554  and  _555
REMARK  216  A    between atoms: _554  and  _557
REMARK  217  A    between atoms: _557  and  _558
REMARK  218  A    between atoms: _559  and  _561
REMARK  219  A    between atoms: _561  and  _562
REMARK  220  A    between atoms: _565  and  _567
REMARK  221  A    between atoms: _567  and  _568
REMARK  222  A    between atoms: _567  and  _570
REMARK  223  A    between atoms: _570  and  _571
REMARK  224  A    between atoms: _574  and  _576
REMARK  225  A    between atoms: _576  and  _577
REMARK  226  A    between atoms: _576  and  _579
REMARK  227  A    between atoms: _579  and  _580
REMARK  228  A    between atoms: _585  and  _586
REMARK  229  A    between atoms: _588  and  _590
REMARK  230  A    between atoms: _590  and  _591
REMARK  231  A    between atoms: _590  and  _593
REMARK  232  A    between atoms: _593  and  _594
REMARK  233  A    between atoms: _596  and  _598
REMARK  234  A    between atoms: _598  and  _599
REMARK  235  A    between atoms: _598  and  _601
REMARK  236  A    between atoms: _601  and  _602
REMARK  237  A    between atoms: _608  and  _610
REMARK  238  A    between atoms: _610  and  _611
REMARK  239  A    between atoms: _610  and  _613
REMARK  240  A    between atoms: _613  and  _614
REMARK  241  A    between atoms: _617  and  _619
REMARK  242  A    between atoms: _619  and  _620
REMARK  243  A    between atoms: _619  and  _622
REMARK  244  A    between atoms: _622  and  _623
REMARK  245  A    between atoms: _625  and  _627
REMARK  246  A    between atoms: _627  and  _628
REMARK  247  A    between atoms: _627  and  _630
REMARK  248  A    between atoms: _630  and  _631
REMARK  249  A    between atoms: _636  and  _638
REMARK  250  A    between atoms: _638  and  _639
REMARK  251  A    between atoms: _638  and  _641
REMARK  252  A    between atoms: _641  and  _642
REMARK  253  A    between atoms: _647  and  _649
REMARK  254  A    between atoms: _649  and  _650
REMARK  255  A    between atoms: _649  and  _652
REMARK  256  A    between atoms: _652  and  _653
REMARK  257  A    between atoms: _656  and  _658
REMARK  258  A    between atoms: _658  and  _659
REMARK  259  A    between atoms: _662  and  _664
REMARK  260  A    between atoms: _664  and  _665
REMARK  261  A    between atoms: _664  and  _667
REMARK  262  A    between atoms: _667  and  _668
REMARK  263  A    between atoms: _673  and  _674
REMARK  264  A    between atoms: _676  and  _678
REMARK  265  A    between atoms: _678  and  _679
REMARK  266  A    between atoms: _678  and  _681
REMARK  267  A    between atoms: _681  and  _682
REMARK  268  A    between atoms: _687  and  _688
REMARK  269  A    between atoms: _690  and  _692
REMARK  270  A    between atoms: _692  and  _693
REMARK  271  A    between atoms: _692  and  _695
REMARK  272  A    between atoms: _698  and  _700
REMARK  273  A    between atoms: _700  and  _701
REMARK  274  A    between atoms: _700  and  _703
REMARK  275  A    between atoms: _703  and  _704
REMARK  276  A    between atoms: _709  and  _711
REMARK  277  A    between atoms: _711  and  _712
REMARK  278  A    between atoms: _715  and  _717
REMARK  279  A    between atoms: _717  and  _718
REMARK  280  A    between atoms: _717  and  _720
REMARK  281  A    between atoms: _720  and  _721
REMARK  282  A    between atoms: _721  and  _722
REMARK  283  A    between atoms: _722  and  _723
REMARK  284  A    between atoms: _732  and  _734
REMARK  285  A    between atoms: _734  and  _735
REMARK  286  A    between atoms: _734  and  _737
REMARK  287  A    between atoms: _737  and  _738
REMARK  288  A    between atoms: _741  and  _743
REMARK  289  A    between atoms: _743  and  _744
REMARK  290  A    between atoms: _743  and  _746
REMARK  291  A    between atoms: _746  and  _747
REMARK  292  A    between atoms: _750  and  _752
REMARK  293  A    between atoms: _752  and  _753
REMARK  294  A    between atoms: _752  and  _755
REMARK  295  A    between atoms: _755  and  _756
REMARK  296  A    between atoms: _797  and  _800
REMARK                            x       y       z     vdW  Elec       q    Type
REMARK                         _______ _______ _______ _____ _____    ______ ____
ROOT
ATOM      1  O   HOH     1      -4.341  27.945  13.774  0.00  0.00    +0.000 OA
ENDROOT
TORSDOF 0
REMARK  Name = ../refined-set-2016/1b1h/1b1h_pocket.pdb
REMARK  296 active torsions:
REMARK  status: ('A' for Active; 'I' for Inactive)
REMARK    1  A    between atoms: _1  and  _3
REMARK    2  A    between atoms: _3  and  _4
REMARK    3  A    between atoms: _3  and  _6
REMARK    4  A    between atoms: _6  and  _7
REMARK    5  A    between atoms: _12  and  _14
REMARK    6  A    between atoms: _14  and  _15
REMARK    7  A    between atoms: _17  and  _19
REMARK    8  A    between atoms: _19  and  _20
REMARK    9  A    between atoms: _19  and  _22
REMARK   10  A    between atoms: _22  and  _23
REMARK   11  A    between atoms: _25  and  _27
REMARK   12  A    between atoms: _27  and  _28
REMARK   13  A    between atoms: _27  and  _30
REMARK   14  A    between atoms: _30  and  _31
REMARK   15  A    between atoms: _31  and  _32
REMARK   16  A    between atoms: _37  and  _39
REMARK   17  A    between atoms: _39  and  _40
REMARK   18  A    between atoms: _39  and  _42
REMARK   19  A    between atoms: _42  and  _43
REMARK   20  A    between atoms: _46  and  _48
REMARK   21  A    between atoms: _48  and  _49
REMARK   22  A    between atoms: _48  and  _51
REMARK   23  A    between atoms: _51  and  _52
REMARK   24  A    between atoms: _52  and  _53
REMARK   25  A    between atoms: _56  and  _58
REMARK   26  A    between atoms: _58  and  _59
REMARK   27  A    between atoms: _61  and  _63
REMARK   28  A    between atoms: _63  and  _64
REMARK   29  A    between atoms: _63  and  _66
REMARK   30  A    between atoms: _70  and  _71
REMARK   31  A    between atoms: _76  and  _78
REMARK   32  A    between atoms: _78  and  _79
REMARK   33  A    between atoms: _78  and  _81
REMARK   34  A    between atoms: _81  and  _82
REMARK   35  A    between atoms: _82  and  _83
REMARK   36  A    between atoms: _86  and  _88
REMARK   37  A    between atoms: _88  and  _89
REMARK   38  A    between atoms: _88  and  _91
REMARK   39  A    between atoms: _91  and  _92
REMARK   40  A    between atoms: _94  and  _96
REMARK   41  A    between atoms: _96  and  _97
REMARK   42  A    between atoms: _96  and  _99
REMARK   43  A    between atoms: _99  and  _100
REMARK   44  A    between atoms: _105  and  _107
REMARK   45  A    between atoms: _107  and  _108
REMARK   46  A    between atoms: _107  and  _110
REMARK   47  A    between atoms: _110  and  _111
REMARK   48  A    between atoms: _111  and  _112
REMARK   49  A    between atoms: _112  and  _113
REMARK   50  A    between atoms: _123  and  _124
REMARK   51  A    between atoms: _129  and  _131
REMARK   52  A    between atoms: _131  and  _132
REMARK   53  A    between atoms: _131  and  _134
REMARK   54  A    between atoms: _134  and  _135
REMARK   55  A    between atoms: _140  and  _141
REMARK   56  A    between atoms: _143  and  _145
REMARK   57  A    between atoms: _145  and  _146
REMARK   58  A    between atoms: _145  and  _148
REMARK   59  A    between atoms: _148  and  _149
REMARK   60  A    between atoms: _154  and  _155
REMARK   61  A    between atoms: _157  and  _159
REMARK   62  A    between atoms: _159  and  _160
REMARK   63  A    between atoms: _159  and  _162
REMARK   64  A    between atoms: _165  and  _167
REMARK   65  A    between atoms: _167  and  _168
REMARK   66  A    between atoms: _167  and  _170
REMARK   67  A    between atoms: _170  and  _171
REMARK   68  A    between atoms: _177  and  _178
REMARK   69  A    between atoms: _183  and  _185
REMARK   70  A    between atoms: _185  and  _186
REMARK   71  A    between atoms: _185  and  _188
REMARK   72  A    between atoms: _188  and  _189
REMARK   73  A    between atoms: _191  and  _193
REMARK   74  A    between atoms: _193  and  _194
REMARK   75  A    between atoms: _193  and  _196
REMARK   76  A    between atoms: _196  and  _197
REMARK   77  A    between atoms: _197  and  _198
REMARK   78  A    between atoms: _201  and  _203
REMARK   79  A    between atoms: _203  and  _204
REMARK   80  A    between atoms: _203  and  _206
REMARK   81  A    between atoms: _206  and  _207
REMARK   82  A    between atoms: _212  and  _213
REMARK   83  A    between atoms: _215  and  _217
REMARK   84  A    between atoms: _217  and  _218
REMARK   85  A    between atoms: _217  and  _220
REMARK   86  A    between atoms: _220  and  _221
REMARK   87  A    between atoms: _226  and  _228
REMARK   88  A    between atoms: _228  and  _229
REMARK   89  A    between atoms: _228  and  _231
REMARK   90  A    between atoms: _231  and  _232
REMARK   91  A    between atoms: _237  and  _239
REMARK   92  A    between atoms: _239  and  _240
REMARK   93  A    between atoms: _239  and  _242
REMARK   94  A    between atoms: _242  and  _243
REMARK   95  A    between atoms: _243  and  _244
REMARK   96  A    between atoms: _246  and  _248
REMARK   97  A    between atoms: _248  and  _249
REMARK   98  A    between atoms: _248  and  _251
REMARK   99  A    between atoms: _251  and  _252
REMARK  100  A    between atoms: _257  and  _258
REMARK  101  A    between atoms: _260  and  _262
REMARK  102  A    between atoms: _262  and  _263
REMARK  103  A    between atoms: _262  and  _265
REMARK  104  A    between atoms: _265  and  _266
REMARK  105  A    between atoms: _269  and  _271
REMARK  106  A    between atoms: _271  and  _272
REMARK  107  A    between atoms: _271  and  _274
REMARK  108  A    between atoms: _274  and  _275
REMARK  109  A    between atoms: _275  and  _558
REMARK  110  A    between atoms: _276  and  _278
REMARK  111  A    between atoms: _278  and  _279
REMARK  112  A    between atoms: _278  and  _281
REMARK  113  A    between atoms: _281  and  _282
REMARK  114  A    between atoms: _285  and  _287
REMARK  115  A    between atoms: _287  and  _288
REMARK  116  A    between atoms: _287  and  _290
REMARK  117  A    between atoms: _290  and  _291
REMARK  118  A    between atoms: _296  and  _297
REMARK  119  A    between atoms: _299  and  _301
REMARK  120  A    between atoms: _301  and  _302
REMARK  121  A    between atoms: _301  and  _304
REMARK  122  A    between atoms: _304  and  _305
REMARK  123  A    between atoms: _310  and  _311
REMARK  124  A    between atoms: _313  and  _315
REMARK  125  A    between atoms: _315  and  _316
REMARK  126  A    between atoms: _315  and  _318
REMARK  127  A    between atoms: _318  and  _319
REMARK  128  A    between atoms: _319  and  _320
REMARK  129  A    between atoms: _323  and  _325
REMARK  130  A    between atoms: _325  and  _326
REMARK  131  A    between atoms: _325  and  _328
REMARK  132  A    between atoms: _328  and  _329
REMARK  133  A    between atoms: _334  and  _335
REMARK  134  A    between atoms: _337  and  _339
REMARK  135  A    between atoms: _339  and  _340
REMARK  136  A    between atoms: _339  and  _342
REMARK  137  A    between atoms: _342  and  _343
REMARK  138  A    between atoms: _348  and  _350
REMARK  139  A    between atoms: _350  and  _351
REMARK  140  A    between atoms: _350  and  _353
REMARK  141  A    between atoms: _353  and  _354
REMARK  142  A    between atoms: _357  and  _359
REMARK  143  A    between atoms: _359  and  _360
REMARK  144  A    between atoms: _359  and  _362
REMARK  145  A    between atoms: _362  and  _363
REMARK  146  A    between atoms: _368  and  _370
REMARK  147  A    between atoms: _370  and  _371
REMARK  148  A    between atoms: _370  and  _373
REMARK  149  A    between atoms: _373  and  _374
REMARK  150  A    between atoms: _384  and  _386
REMARK  151  A    between atoms: _386  and  _387
REMARK  152  A    between atoms: _386  and  _389
REMARK  153  A    between atoms: _389  and  _390
REMARK  154  A    between atoms: _390  and  _391
REMARK  155  A    between atoms: _391  and  _392
REMARK  156  A    between atoms: _392  and  _393
REMARK  157  A    between atoms: _397  and  _399
REMARK  158  A    between atoms: _399  and  _400
REMARK  159  A    between atoms: _399  and  _402
REMARK  160  A    between atoms: _402  and  _403
REMARK  161  A    between atoms: _406  and  _408
REMARK  162  A    between atoms: _408  and  _409
REMARK  163  A    between atoms: _408  and  _411
REMARK  164  A    between atoms: _411  and  _412
REMARK  165  A    between atoms: _418  and  _420
REMARK  166  A    between atoms: _420  and  _421
REMARK  167  A    between atoms: _420  and  _423
REMARK  168  A    between atoms: _423  and  _424
REMARK  169  A    between atoms: _427  and  _429
REMARK  170  A    between atoms: _429  and  _430
REMARK  171  A    between atoms: _429  and  _432
REMARK  172  A    between atoms: _432  and  _433
REMARK  173  A    between atoms: _436  and  _438
REMARK  174  A    between atoms: _438  and  _439
REMARK  175  A    between atoms: _438  and  _441
REMARK  176  A    between atoms: _441  and  _442
REMARK  177  A    between atoms: _445  and  _447
REMARK  178  A    between atoms: _447  and  _448
REMARK  179  A    between atoms: _447  and  _450
REMARK  180  A    between atoms: _450  and  _451
REMARK  181  A    between atoms: _451  and  _452
REMARK  182  A    between atoms: _452  and  _453
REMARK  183  A    between atoms: _462  and  _464
REMARK  184  A    between atoms: _464  and  _465
REMARK  185  A    between atoms: _464  and  _467
REMARK  186  A    between atoms: _467  and  _468
REMARK  187  A    between atoms: _473  and  _475
REMARK  188  A    between atoms: _475  and  _476
REMARK  189  A    between atoms: _475  and  _478
REMARK  190  A    between atoms: _478  and  _479
REMARK  191  A    between atoms: _479  and  _480
REMARK  192  A    between atoms: _485  and  _487
REMARK  193  A    between atoms: _487  and  _488
REMARK  194  A    between atoms: _490  and  _492
REMARK  195  A    between atoms: _492  and  _493
REMARK  196  A    between atoms: _492  and  _495
REMARK  197  A    between atoms: _495  and  _496
REMARK  198  A    between atoms: _502  and  _504
REMARK  199  A    between atoms: _504  and  _505
REMARK  200  A    between atoms: _508  and  _510
REMARK  201  A    between atoms: _510  and  _511
REMARK  202  A    between atoms: _510  and  _513
REMARK  203  A    between atoms: _513  and  _514
REMARK  204  A    between atoms: _514  and  _515
REMARK  205  A    between atoms: _515  and  _516
REMARK  206  A    between atoms: _525  and  _527
REMARK  207  A    between atoms: _527  and  _528
REMARK  208  A    between atoms: _531  and  _533
REMARK  209  A    between atoms: _533  and  _534
REMARK  210  A    between atoms: _536  and  _538
REMARK  211  A    between atoms: _538  and  _539
REMARK  212  A    between atoms: _538  and  _541
REMARK  213  A    between atoms: _541  and  _542
REMARK  214  A    between atoms: _552  and  _554
REMARK  215  A    between atoms: _554  and  _555
REMARK  216  A    between atoms: _554  and  _557
REMARK  217  A    between atoms: _557  and  _558
REMARK  218  A    between atoms: _559  and  _561
REMARK  219  A    between atoms: _561  and  _562
REMARK  220  A    between atoms: _565  and  _567
REMARK  221  A    between atoms: _567  and  _568
REMARK  222  A    between atoms: _567  and  _570
REMARK  223  A    between atoms: _570  and  _571
REMARK  224  A    between atoms: _574  and  _576
REMARK  225  A    between atoms: _576  and  _577
REMARK  226  A    between atoms: _576  and  _579
REMARK  227  A    between atoms: _579  and  _580
REMARK  228  A    between atoms: _585  and  _586
REMARK  229  A    between atoms: _588  and  _590
REMARK  230  A    between atoms: _590  and  _591
REMARK  231  A    between atoms: _590  and  _593
REMARK  232  A    between atoms: _593  and  _594
REMARK  233  A    between atoms: _596  and  _598
REMARK  234  A    between atoms: _598  and  _599
REMARK  235  A    between atoms: _598  and  _601
REMARK  236  A    between atoms: _601  and  _602
REMARK  237  A    between atoms: _608  and  _610
REMARK  238  A    between atoms: _610  and  _611
REMARK  239  A    between atoms: _610  and  _613
REMARK  240  A    between atoms: _613  and  _614
REMARK  241  A    between atoms: _617  and  _619
REMARK  242  A    between atoms: _619  and  _620
REMARK  243  A    between atoms: _619  and  _622
REMARK  244  A    between atoms: _622  and  _623
REMARK  245  A    between atoms: _625  and  _627
REMARK  246  A    between atoms: _627  and  _628
REMARK  247  A    between atoms: _627  and  _630
REMARK  248  A    between atoms: _630  and  _631
REMARK  249  A    between atoms: _636  and  _638
REMARK  250  A    between atoms: _638  and  _639
REMARK  251  A    between atoms: _638  and  _641
REMARK  252  A    between atoms: _641  and  _642
REMARK  253  A    between atoms: _647  and  _649
REMARK  254  A    between atoms: _649  and  _650
REMARK  255  A    between atoms: _649  and  _652
REMARK  256  A    between atoms: _652  and  _653
REMARK  257  A    between atoms: _656  and  _658
REMARK  258  A    between atoms: _658  and  _659
REMARK  259  A    between atoms: _662  and  _664
REMARK  260  A    between atoms: _664  and  _665
REMARK  261  A    between atoms: _664  and  _667
REMARK  262  A    between atoms: _667  and  _668
REMARK  263  A    between atoms: _673  and  _674
REMARK  264  A    between atoms: _676  and  _678
REMARK  265  A    between atoms: _678  and  _679
REMARK  266  A    between atoms: _678  and  _681
REMARK  267  A    between atoms: _681  and  _682
REMARK  268  A    between atoms: _687  and  _688
REMARK  269  A    between atoms: _690  and  _692
REMARK  270  A    between atoms: _692  and  _693
REMARK  271  A    between atoms: _692  and  _695
REMARK  272  A    between atoms: _698  and  _700
REMARK  273  A    between atoms: _700  and  _701
REMARK  274  A    between atoms: _700  and  _703
REMARK  275  A    between atoms: _703  and  _704
REMARK  276  A    between atoms: _709  and  _711
REMARK  277  A    between atoms: _711  and  _712
REMARK  278  A    between atoms: _715  and  _717
REMARK  279  A    between atoms: _717  and  _718
REMARK  280  A    between atoms: _717  and  _720
REMARK  281  A    between atoms: _720  and  _721
REMARK  282  A    between atoms: _721  and  _722
REMARK  283  A    between atoms: _722  and  _723
REMARK  284  A    between atoms: _732  and  _734
REMARK  285  A    between atoms: _734  and  _735
REMARK  286  A    between atoms: _734  and  _737
REMARK  287  A    between atoms: _737  and  _738
REMARK  288  A    between atoms: _741  and  _743
REMARK  289  A    between atoms: _743  and  _744
REMARK  290  A    between atoms: _743  and  _746
REMARK  291  A    between atoms: _746  and  _747
REMARK  292  A    between atoms: _750  and  _752
REMARK  293  A    between atoms: _752  and  _753
REMARK  294  A    between atoms: _752  and  _755
REMARK  295  A    between atoms: _755  and  _756
REMARK  296  A    between atoms: _797  and  _800
REMARK                            x       y       z     vdW  Elec       q    Type
REMARK                         _______ _______ _______ _____ _____    ______ ____
ROOT
ATOM      1  O   HOH     1      -2.006  17.524   7.636  0.00  0.00    +0.000 OA
ENDROOT
TORSDOF 0
REMARK  Name = ../refined-set-2016/1b1h/1b1h_pocket.pdb
REMARK  296 active torsions:
REMARK  status: ('A' for Active; 'I' for Inactive)
REMARK    1  A    between atoms: _1  and  _3
REMARK    2  A    between atoms: _3  and  _4
REMARK    3  A    between atoms: _3  and  _6
REMARK    4  A    between atoms: _6  and  _7
REMARK    5  A    between atoms: _12  and  _14
REMARK    6  A    between atoms: _14  and  _15
REMARK    7  A    between atoms: _17  and  _19
REMARK    8  A    between atoms: _19  and  _20
REMARK    9  A    between atoms: _19  and  _22
REMARK   10  A    between atoms: _22  and  _23
REMARK   11  A    between atoms: _25  and  _27
REMARK   12  A    between atoms: _27  and  _28
REMARK   13  A    between atoms: _27  and  _30
REMARK   14  A    between atoms: _30  and  _31
REMARK   15  A    between atoms: _31  and  _32
REMARK   16  A    between atoms: _37  and  _39
REMARK   17  A    between atoms: _39  and  _40
REMARK   18  A    between atoms: _39  and  _42
REMARK   19  A    between atoms: _42  and  _43
REMARK   20  A    between atoms: _46  and  _48
REMARK   21  A    between atoms: _48  and  _49
REMARK   22  A    between atoms: _48  and  _51
REMARK   23  A    between atoms: _51  and  _52
REMARK   24  A    between atoms: _52  and  _53
REMARK   25  A    between atoms: _56  and  _58
REMARK   26  A    between atoms: _58  and  _59
REMARK   27  A    between atoms: _61  and  _63
REMARK   28  A    between atoms: _63  and  _64
REMARK   29  A    between atoms: _63  and  _66
REMARK   30  A    between atoms: _70  and  _71
REMARK   31  A    between atoms: _76  and  _78
REMARK   32  A    between atoms: _78  and  _79
REMARK   33  A    between atoms: _78  and  _81
REMARK   34  A    between atoms: _81  and  _82
REMARK   35  A    between atoms: _82  and  _83
REMARK   36  A    between atoms: _86  and  _88
REMARK   37  A    between atoms: _88  and  _89
REMARK   38  A    between atoms: _88  and  _91
REMARK   39  A    between atoms: _91  and  _92
REMARK   40  A    between atoms: _94  and  _96
REMARK   41  A    between atoms: _96  and  _97
REMARK   42  A    between atoms: _96  and  _99
REMARK   43  A    between atoms: _99  and  _100
REMARK   44  A    between atoms: _105  and  _107
REMARK   45  A    between atoms: _107  and  _108
REMARK   46  A    between atoms: _107  and  _110
REMARK   47  A    between atoms: _110  and  _111
REMARK   48  A    between atoms: _111  and  _112
REMARK   49  A    between atoms: _112  and  _113
REMARK   50  A    between atoms: _123  and  _124
REMARK   51  A    between atoms: _129  and  _131
REMARK   52  A    between atoms: _131  and  _132
REMARK   53  A    between atoms: _131  and  _134
REMARK   54  A    between atoms: _134  and  _135
REMARK   55  A    between atoms: _140  and  _141
REMARK   56  A    between atoms: _143  and  _145
REMARK   57  A    between atoms: _145  and  _146
REMARK   58  A    between atoms: _145  and  _148
REMARK   59  A    between atoms: _148  and  _149
REMARK   60  A    between atoms: _154  and  _155
REMARK   61  A    between atoms: _157  and  _159
REMARK   62  A    between atoms: _159  and  _160
REMARK   63  A    between atoms: _159  and  _162
REMARK   64  A    between atoms: _165  and  _167
REMARK   65  A    between atoms: _167  and  _168
REMARK   66  A    between atoms: _167  and  _170
REMARK   67  A    between atoms: _170  and  _171
REMARK   68  A    between atoms: _177  and  _178
REMARK   69  A    between atoms: _183  and  _185
REMARK   70  A    between atoms: _185  and  _186
REMARK   71  A    between atoms: _185  and  _188
REMARK   72  A    between atoms: _188  and  _189
REMARK   73  A    between atoms: _191  and  _193
REMARK   74  A    between atoms: _193  and  _194
REMARK   75  A    between atoms: _193  and  _196
REMARK   76  A    between atoms: _196  and  _197
REMARK   77  A    between atoms: _197  and  _198
REMARK   78  A    between atoms: _201  and  _203
REMARK   79  A    between atoms: _203  and  _204
REMARK   80  A    between atoms: _203  and  _206
REMARK   81  A    between atoms: _206  and  _207
REMARK   82  A    between atoms: _212  and  _213
REMARK   83  A    between atoms: _215  and  _217
REMARK   84  A    between atoms: _217  and  _218
REMARK   85  A    between atoms: _217  and  _220
REMARK   86  A    between atoms: _220  and  _221
REMARK   87  A    between atoms: _226  and  _228
REMARK   88  A    between atoms: _228  and  _229
REMARK   89  A    between atoms: _228  and  _231
REMARK   90  A    between atoms: _231  and  _232
REMARK   91  A    between atoms: _237  and  _239
REMARK   92  A    between atoms: _239  and  _240
REMARK   93  A    between atoms: _239  and  _242
REMARK   94  A    between atoms: _242  and  _243
REMARK   95  A    between atoms: _243  and  _244
REMARK   96  A    between atoms: _246  and  _248
REMARK   97  A    between atoms: _248  and  _249
REMARK   98  A    between atoms: _248  and  _251
REMARK   99  A    between atoms: _251  and  _252
REMARK  100  A    between atoms: _257  and  _258
REMARK  101  A    between atoms: _260  and  _262
REMARK  102  A    between atoms: _262  and  _263
REMARK  103  A    between atoms: _262  and  _265
REMARK  104  A    between atoms: _265  and  _266
REMARK  105  A    between atoms: _269  and  _271
REMARK  106  A    between atoms: _271  and  _272
REMARK  107  A    between atoms: _271  and  _274
REMARK  108  A    between atoms: _274  and  _275
REMARK  109  A    between atoms: _275  and  _558
REMARK  110  A    between atoms: _276  and  _278
REMARK  111  A    between atoms: _278  and  _279
REMARK  112  A    between atoms: _278  and  _281
REMARK  113  A    between atoms: _281  and  _282
REMARK  114  A    between atoms: _285  and  _287
REMARK  115  A    between atoms: _287  and  _288
REMARK  116  A    between atoms: _287  and  _290
REMARK  117  A    between atoms: _290  and  _291
REMARK  118  A    between atoms: _296  and  _297
REMARK  119  A    between atoms: _299  and  _301
REMARK  120  A    between atoms: _301  and  _302
REMARK  121  A    between atoms: _301  and  _304
REMARK  122  A    between atoms: _304  and  _305
REMARK  123  A    between atoms: _310  and  _311
REMARK  124  A    between atoms: _313  and  _315
REMARK  125  A    between atoms: _315  and  _316
REMARK  126  A    between atoms: _315  and  _318
REMARK  127  A    between atoms: _318  and  _319
REMARK  128  A    between atoms: _319  and  _320
REMARK  129  A    between atoms: _323  and  _325
REMARK  130  A    between atoms: _325  and  _326
REMARK  131  A    between atoms: _325  and  _328
REMARK  132  A    between atoms: _328  and  _329
REMARK  133  A    between atoms: _334  and  _335
REMARK  134  A    between atoms: _337  and  _339
REMARK  135  A    between atoms: _339  and  _340
REMARK  136  A    between atoms: _339  and  _342
REMARK  137  A    between atoms: _342  and  _343
REMARK  138  A    between atoms: _348  and  _350
REMARK  139  A    between atoms: _350  and  _351
REMARK  140  A    between atoms: _350  and  _353
REMARK  141  A    between atoms: _353  and  _354
REMARK  142  A    between atoms: _357  and  _359
REMARK  143  A    between atoms: _359  and  _360
REMARK  144  A    between atoms: _359  and  _362
REMARK  145  A    between atoms: _362  and  _363
REMARK  146  A    between atoms: _368  and  _370
REMARK  147  A    between atoms: _370  and  _371
REMARK  148  A    between atoms: _370  and  _373
REMARK  149  A    between atoms: _373  and  _374
REMARK  150  A    between atoms: _384  and  _386
REMARK  151  A    between atoms: _386  and  _387
REMARK  152  A    between atoms: _386  and  _389
REMARK  153  A    between atoms: _389  and  _390
REMARK  154  A    between atoms: _390  and  _391
REMARK  155  A    between atoms: _391  and  _392
REMARK  156  A    between atoms: _392  and  _393
REMARK  157  A    between atoms: _397  and  _399
REMARK  158  A    between atoms: _399  and  _400
REMARK  159  A    between atoms: _399  and  _402
REMARK  160  A    between atoms: _402  and  _403
REMARK  161  A    between atoms: _406  and  _408
REMARK  162  A    between atoms: _408  and  _409
REMARK  163  A    between atoms: _408  and  _411
REMARK  164  A    between atoms: _411  and  _412
REMARK  165  A    between atoms: _418  and  _420
REMARK  166  A    between atoms: _420  and  _421
REMARK  167  A    between atoms: _420  and  _423
REMARK  168  A    between atoms: _423  and  _424
REMARK  169  A    between atoms: _427  and  _429
REMARK  170  A    between atoms: _429  and  _430
REMARK  171  A    between atoms: _429  and  _432
REMARK  172  A    between atoms: _432  and  _433
REMARK  173  A    between atoms: _436  and  _438
REMARK  174  A    between atoms: _438  and  _439
REMARK  175  A    between atoms: _438  and  _441
REMARK  176  A    between atoms: _441  and  _442
REMARK  177  A    between atoms: _445  and  _447
REMARK  178  A    between atoms: _447  and  _448
REMARK  179  A    between atoms: _447  and  _450
REMARK  180  A    between atoms: _450  and  _451
REMARK  181  A    between atoms: _451  and  _452
REMARK  182  A    between atoms: _452  and  _453
REMARK  183  A    between atoms: _462  and  _464
REMARK  184  A    between atoms: _464  and  _465
REMARK  185  A    between atoms: _464  and  _467
REMARK  186  A    between atoms: _467  and  _468
REMARK  187  A    between atoms: _473  and  _475
REMARK  188  A    between atoms: _475  and  _476
REMARK  189  A    between atoms: _475  and  _478
REMARK  190  A    between atoms: _478  and  _479
REMARK  191  A    between atoms: _479  and  _480
REMARK  192  A    between atoms: _485  and  _487
REMARK  193  A    between atoms: _487  and  _488
REMARK  194  A    between atoms: _490  and  _492
REMARK  195  A    between atoms: _492  and  _493
REMARK  196  A    between atoms: _492  and  _495
REMARK  197  A    between atoms: _495  and  _496
REMARK  198  A    between atoms: _502  and  _504
REMARK  199  A    between atoms: _504  and  _505
REMARK  200  A    between atoms: _508  and  _510
REMARK  201  A    between atoms: _510  and  _511
REMARK  202  A    between atoms: _510  and  _513
REMARK  203  A    between atoms: _513  and  _514
REMARK  204  A    between atoms: _514  and  _515
REMARK  205  A    between atoms: _515  and  _516
REMARK  206  A    between atoms: _525  and  _527
REMARK  207  A    between atoms: _527  and  _528
REMARK  208  A    between atoms: _531  and  _533
REMARK  209  A    between atoms: _533  and  _534
REMARK  210  A    between atoms: _536  and  _538
REMARK  211  A    between atoms: _538  and  _539
REMARK  212  A    between atoms: _538  and  _541
REMARK  213  A    between atoms: _541  and  _542
REMARK  214  A    between atoms: _552  and  _554
REMARK  215  A    between atoms: _554  and  _555
REMARK  216  A    between atoms: _554  and  _557
REMARK  217  A    between atoms: _557  and  _558
REMARK  218  A    between atoms: _559  and  _561
REMARK  219  A    between atoms: _561  and  _562
REMARK  220  A    between atoms: _565  and  _567
REMARK  221  A    between atoms: _567  and  _568
REMARK  222  A    between atoms: _567  and  _570
REMARK  223  A    between atoms: _570  and  _571
REMARK  224  A    between atoms: _574  and  _576
REMARK  225  A    between atoms: _576  and  _577
REMARK  226  A    between atoms: _576  and  _579
REMARK  227  A    between atoms: _579  and  _580
REMARK  228  A    between atoms: _585  and  _586
REMARK  229  A    between atoms: _588  and  _590
REMARK  230  A    between atoms: _590  and  _591
REMARK  231  A    between atoms: _590  and  _593
REMARK  232  A    between atoms: _593  and  _594
REMARK  233  A    between atoms: _596  and  _598
REMARK  234  A    between atoms: _598  and  _599
REMARK  235  A    between atoms: _598  and  _601
REMARK  236  A    between atoms: _601  and  _602
REMARK  237  A    between atoms: _608  and  _610
REMARK  238  A    between atoms: _610  and  _611
REMARK  239  A    between atoms: _610  and  _613
REMARK  240  A    between atoms: _613  and  _614
REMARK  241  A    between atoms: _617  and  _619
REMARK  242  A    between atoms: _619  and  _620
REMARK  243  A    between atoms: _619  and  _622
REMARK  244  A    between atoms: _622  and  _623
REMARK  245  A    between atoms: _625  and  _627
REMARK  246  A    between atoms: _627  and  _628
REMARK  247  A    between atoms: _627  and  _630
REMARK  248  A    between atoms: _630  and  _631
REMARK  249  A    between atoms: _636  and  _638
REMARK  250  A    between atoms: _638  and  _639
REMARK  251  A    between atoms: _638  and  _641
REMARK  252  A    between atoms: _641  and  _642
REMARK  253  A    between atoms: _647  and  _649
REMARK  254  A    between atoms: _649  and  _650
REMARK  255  A    between atoms: _649  and  _652
REMARK  256  A    between atoms: _652  and  _653
REMARK  257  A    between atoms: _656  and  _658
REMARK  258  A    between atoms: _658  and  _659
REMARK  259  A    between atoms: _662  and  _664
REMARK  260  A    between atoms: _664  and  _665
REMARK  261  A    between atoms: _664  and  _667
REMARK  262  A    between atoms: _667  and  _668
REMARK  263  A    between atoms: _673  and  _674
REMARK  264  A    between atoms: _676  and  _678
REMARK  265  A    between atoms: _678  and  _679
REMARK  266  A    between atoms: _678  and  _681
REMARK  267  A    between atoms: _681  and  _682
REMARK  268  A    between atoms: _687  and  _688
REMARK  269  A    between atoms: _690  and  _692
REMARK  270  A    between atoms: _692  and  _693
REMARK  271  A    between atoms: _692  and  _695
REMARK  272  A    between atoms: _698  and  _700
REMARK  273  A    between atoms: _700  and  _701
REMARK  274  A    between atoms: _700  and  _703
REMARK  275  A    between atoms: _703  and  _704
REMARK  276  A    between atoms: _709  and  _711
REMARK  277  A    between atoms: _711  and  _712
REMARK  278  A    between atoms: _715  and  _717
REMARK  279  A    between atoms: _717  and  _718
REMARK  280  A    between atoms: _717  and  _720
REMARK  281  A    between atoms: _720  and  _721
REMARK  282  A    between atoms: _721  and  _722
REMARK  283  A    between atoms: _722  and  _723
REMARK  284  A    between atoms: _732  and  _734
REMARK  285  A    between atoms: _734  and  _735
REMARK  286  A    between atoms: _734  and  _737
REMARK  287  A    between atoms: _737  and  _738
REMARK  288  A    between atoms: _741  and  _743
REMARK  289  A    between atoms: _743  and  _744
REMARK  290  A    between atoms: _743  and  _746
REMARK  291  A    between atoms: _746  and  _747
REMARK  292  A    between atoms: _750  and  _752
REMARK  293  A    between atoms: _752  and  _753
REMARK  294  A    between atoms: _752  and  _755
REMARK  295  A    between atoms: _755  and  _756
REMARK  296  A    between atoms: _797  and  _800
REMARK                            x       y       z     vdW  Elec       q    Type
REMARK                         _______ _______ _______ _____ _____    ______ ____
ROOT
ATOM      1  O   HOH     1       1.726  14.928  11.290  0.00  0.00    +0.000 OA
ENDROOT
TORSDOF 0
REMARK  Name = ../refined-set-2016/1b1h/1b1h_pocket.pdb
REMARK  296 active torsions:
REMARK  status: ('A' for Active; 'I' for Inactive)
REMARK    1  A    between atoms: _1  and  _3
REMARK    2  A    between atoms: _3  and  _4
REMARK    3  A    between atoms: _3  and  _6
REMARK    4  A    between atoms: _6  and  _7
REMARK    5  A    between atoms: _12  and  _14
REMARK    6  A    between atoms: _14  and  _15
REMARK    7  A    between atoms: _17  and  _19
REMARK    8  A    between atoms: _19  and  _20
REMARK    9  A    between atoms: _19  and  _22
REMARK   10  A    between atoms: _22  and  _23
REMARK   11  A    between atoms: _25  and  _27
REMARK   12  A    between atoms: _27  and  _28
REMARK   13  A    between atoms: _27  and  _30
REMARK   14  A    between atoms: _30  and  _31
REMARK   15  A    between atoms: _31  and  _32
REMARK   16  A    between atoms: _37  and  _39
REMARK   17  A    between atoms: _39  and  _40
REMARK   18  A    between atoms: _39  and  _42
REMARK   19  A    between atoms: _42  and  _43
REMARK   20  A    between atoms: _46  and  _48
REMARK   21  A    between atoms: _48  and  _49
REMARK   22  A    between atoms: _48  and  _51
REMARK   23  A    between atoms: _51  and  _52
REMARK   24  A    between atoms: _52  and  _53
REMARK   25  A    between atoms: _56  and  _58
REMARK   26  A    between atoms: _58  and  _59
REMARK   27  A    between atoms: _61  and  _63
REMARK   28  A    between atoms: _63  and  _64
REMARK   29  A    between atoms: _63  and  _66
REMARK   30  A    between atoms: _70  and  _71
REMARK   31  A    between atoms: _76  and  _78
REMARK   32  A    between atoms: _78  and  _79
REMARK   33  A    between atoms: _78  and  _81
REMARK   34  A    between atoms: _81  and  _82
REMARK   35  A    between atoms: _82  and  _83
REMARK   36  A    between atoms: _86  and  _88
REMARK   37  A    between atoms: _88  and  _89
REMARK   38  A    between atoms: _88  and  _91
REMARK   39  A    between atoms: _91  and  _92
REMARK   40  A    between atoms: _94  and  _96
REMARK   41  A    between atoms: _96  and  _97
REMARK   42  A    between atoms: _96  and  _99
REMARK   43  A    between atoms: _99  and  _100
REMARK   44  A    between atoms: _105  and  _107
REMARK   45  A    between atoms: _107  and  _108
REMARK   46  A    between atoms: _107  and  _110
REMARK   47  A    between atoms: _110  and  _111
REMARK   48  A    between atoms: _111  and  _112
REMARK   49  A    between atoms: _112  and  _113
REMARK   50  A    between atoms: _123  and  _124
REMARK   51  A    between atoms: _129  and  _131
REMARK   52  A    between atoms: _131  and  _132
REMARK   53  A    between atoms: _131  and  _134
REMARK   54  A    between atoms: _134  and  _135
REMARK   55  A    between atoms: _140  and  _141
REMARK   56  A    between atoms: _143  and  _145
REMARK   57  A    between atoms: _145  and  _146
REMARK   58  A    between atoms: _145  and  _148
REMARK   59  A    between atoms: _148  and  _149
REMARK   60  A    between atoms: _154  and  _155
REMARK   61  A    between atoms: _157  and  _159
REMARK   62  A    between atoms: _159  and  _160
REMARK   63  A    between atoms: _159  and  _162
REMARK   64  A    between atoms: _165  and  _167
REMARK   65  A    between atoms: _167  and  _168
REMARK   66  A    between atoms: _167  and  _170
REMARK   67  A    between atoms: _170  and  _171
REMARK   68  A    between atoms: _177  and  _178
REMARK   69  A    between atoms: _183  and  _185
REMARK   70  A    between atoms: _185  and  _186
REMARK   71  A    between atoms: _185  and  _188
REMARK   72  A    between atoms: _188  and  _189
REMARK   73  A    between atoms: _191  and  _193
REMARK   74  A    between atoms: _193  and  _194
REMARK   75  A    between atoms: _193  and  _196
REMARK   76  A    between atoms: _196  and  _197
REMARK   77  A    between atoms: _197  and  _198
REMARK   78  A    between atoms: _201  and  _203
REMARK   79  A    between atoms: _203  and  _204
REMARK   80  A    between atoms: _203  and  _206
REMARK   81  A    between atoms: _206  and  _207
REMARK   82  A    between atoms: _212  and  _213
REMARK   83  A    between atoms: _215  and  _217
REMARK   84  A    between atoms: _217  and  _218
REMARK   85  A    between atoms: _217  and  _220
REMARK   86  A    between atoms: _220  and  _221
REMARK   87  A    between atoms: _226  and  _228
REMARK   88  A    between atoms: _228  and  _229
REMARK   89  A    between atoms: _228  and  _231
REMARK   90  A    between atoms: _231  and  _232
REMARK   91  A    between atoms: _237  and  _239
REMARK   92  A    between atoms: _239  and  _240
REMARK   93  A    between atoms: _239  and  _242
REMARK   94  A    between atoms: _242  and  _243
REMARK   95  A    between atoms: _243  and  _244
REMARK   96  A    between atoms: _246  and  _248
REMARK   97  A    between atoms: _248  and  _249
REMARK   98  A    between atoms: _248  and  _251
REMARK   99  A    between atoms: _251  and  _252
REMARK  100  A    between atoms: _257  and  _258
REMARK  101  A    between atoms: _260  and  _262
REMARK  102  A    between atoms: _262  and  _263
REMARK  103  A    between atoms: _262  and  _265
REMARK  104  A    between atoms: _265  and  _266
REMARK  105  A    between atoms: _269  and  _271
REMARK  106  A    between atoms: _271  and  _272
REMARK  107  A    between atoms: _271  and  _274
REMARK  108  A    between atoms: _274  and  _275
REMARK  109  A    between atoms: _275  and  _558
REMARK  110  A    between atoms: _276  and  _278
REMARK  111  A    between atoms: _278  and  _279
REMARK  112  A    between atoms: _278  and  _281
REMARK  113  A    between atoms: _281  and  _282
REMARK  114  A    between atoms: _285  and  _287
REMARK  115  A    between atoms: _287  and  _288
REMARK  116  A    between atoms: _287  and  _290
REMARK  117  A    between atoms: _290  and  _291
REMARK  118  A    between atoms: _296  and  _297
REMARK  119  A    between atoms: _299  and  _301
REMARK  120  A    between atoms: _301  and  _302
REMARK  121  A    between atoms: _301  and  _304
REMARK  122  A    between atoms: _304  and  _305
REMARK  123  A    between atoms: _310  and  _311
REMARK  124  A    between atoms: _313  and  _315
REMARK  125  A    between atoms: _315  and  _316
REMARK  126  A    between atoms: _315  and  _318
REMARK  127  A    between atoms: _318  and  _319
REMARK  128  A    between atoms: _319  and  _320
REMARK  129  A    between atoms: _323  and  _325
REMARK  130  A    between atoms: _325  and  _326
REMARK  131  A    between atoms: _325  and  _328
REMARK  132  A    between atoms: _328  and  _329
REMARK  133  A    between atoms: _334  and  _335
REMARK  134  A    between atoms: _337  and  _339
REMARK  135  A    between atoms: _339  and  _340
REMARK  136  A    between atoms: _339  and  _342
REMARK  137  A    between atoms: _342  and  _343
REMARK  138  A    between atoms: _348  and  _350
REMARK  139  A    between atoms: _350  and  _351
REMARK  140  A    between atoms: _350  and  _353
REMARK  141  A    between atoms: _353  and  _354
REMARK  142  A    between atoms: _357  and  _359
REMARK  143  A    between atoms: _359  and  _360
REMARK  144  A    between atoms: _359  and  _362
REMARK  145  A    between atoms: _362  and  _363
REMARK  146  A    between atoms: _368  and  _370
REMARK  147  A    between atoms: _370  and  _371
REMARK  148  A    between atoms: _370  and  _373
REMARK  149  A    between atoms: _373  and  _374
REMARK  150  A    between atoms: _384  and  _386
REMARK  151  A    between atoms: _386  and  _387
REMARK  152  A    between atoms: _386  and  _389
REMARK  153  A    between atoms: _389  and  _390
REMARK  154  A    between atoms: _390  and  _391
REMARK  155  A    between atoms: _391  and  _392
REMARK  156  A    between atoms: _392  and  _393
REMARK  157  A    between atoms: _397  and  _399
REMARK  158  A    between atoms: _399  and  _400
REMARK  159  A    between atoms: _399  and  _402
REMARK  160  A    between atoms: _402  and  _403
REMARK  161  A    between atoms: _406  and  _408
REMARK  162  A    between atoms: _408  and  _409
REMARK  163  A    between atoms: _408  and  _411
REMARK  164  A    between atoms: _411  and  _412
REMARK  165  A    between atoms: _418  and  _420
REMARK  166  A    between atoms: _420  and  _421
REMARK  167  A    between atoms: _420  and  _423
REMARK  168  A    between atoms: _423  and  _424
REMARK  169  A    between atoms: _427  and  _429
REMARK  170  A    between atoms: _429  and  _430
REMARK  171  A    between atoms: _429  and  _432
REMARK  172  A    between atoms: _432  and  _433
REMARK  173  A    between atoms: _436  and  _438
REMARK  174  A    between atoms: _438  and  _439
REMARK  175  A    between atoms: _438  and  _441
REMARK  176  A    between atoms: _441  and  _442
REMARK  177  A    between atoms: _445  and  _447
REMARK  178  A    between atoms: _447  and  _448
REMARK  179  A    between atoms: _447  and  _450
REMARK  180  A    between atoms: _450  and  _451
REMARK  181  A    between atoms: _451  and  _452
REMARK  182  A    between atoms: _452  and  _453
REMARK  183  A    between atoms: _462  and  _464
REMARK  184  A    between atoms: _464  and  _465
REMARK  185  A    between atoms: _464  and  _467
REMARK  186  A    between atoms: _467  and  _468
REMARK  187  A    between atoms: _473  and  _475
REMARK  188  A    between atoms: _475  and  _476
REMARK  189  A    between atoms: _475  and  _478
REMARK  190  A    between atoms: _478  and  _479
REMARK  191  A    between atoms: _479  and  _480
REMARK  192  A    between atoms: _485  and  _487
REMARK  193  A    between atoms: _487  and  _488
REMARK  194  A    between atoms: _490  and  _492
REMARK  195  A    between atoms: _492  and  _493
REMARK  196  A    between atoms: _492  and  _495
REMARK  197  A    between atoms: _495  and  _496
REMARK  198  A    between atoms: _502  and  _504
REMARK  199  A    between atoms: _504  and  _505
REMARK  200  A    between atoms: _508  and  _510
REMARK  201  A    between atoms: _510  and  _511
REMARK  202  A    between atoms: _510  and  _513
REMARK  203  A    between atoms: _513  and  _514
REMARK  204  A    between atoms: _514  and  _515
REMARK  205  A    between atoms: _515  and  _516
REMARK  206  A    between atoms: _525  and  _527
REMARK  207  A    between atoms: _527  and  _528
REMARK  208  A    between atoms: _531  and  _533
REMARK  209  A    between atoms: _533  and  _534
REMARK  210  A    between atoms: _536  and  _538
REMARK  211  A    between atoms: _538  and  _539
REMARK  212  A    between atoms: _538  and  _541
REMARK  213  A    between atoms: _541  and  _542
REMARK  214  A    between atoms: _552  and  _554
REMARK  215  A    between atoms: _554  and  _555
REMARK  216  A    between atoms: _554  and  _557
REMARK  217  A    between atoms: _557  and  _558
REMARK  218  A    between atoms: _559  and  _561
REMARK  219  A    between atoms: _561  and  _562
REMARK  220  A    between atoms: _565  and  _567
REMARK  221  A    between atoms: _567  and  _568
REMARK  222  A    between atoms: _567  and  _570
REMARK  223  A    between atoms: _570  and  _571
REMARK  224  A    between atoms: _574  and  _576
REMARK  225  A    between atoms: _576  and  _577
REMARK  226  A    between atoms: _576  and  _579
REMARK  227  A    between atoms: _579  and  _580
REMARK  228  A    between atoms: _585  and  _586
REMARK  229  A    between atoms: _588  and  _590
REMARK  230  A    between atoms: _590  and  _591
REMARK  231  A    between atoms: _590  and  _593
REMARK  232  A    between atoms: _593  and  _594
REMARK  233  A    between atoms: _596  and  _598
REMARK  234  A    between atoms: _598  and  _599
REMARK  235  A    between atoms: _598  and  _601
REMARK  236  A    between atoms: _601  and  _602
REMARK  237  A    between atoms: _608  and  _610
REMARK  238  A    between atoms: _610  and  _611
REMARK  239  A    between atoms: _610  and  _613
REMARK  240  A    between atoms: _613  and  _614
REMARK  241  A    between atoms: _617  and  _619
REMARK  242  A    between atoms: _619  and  _620
REMARK  243  A    between atoms: _619  and  _622
REMARK  244  A    between atoms: _622  and  _623
REMARK  245  A    between atoms: _625  and  _627
REMARK  246  A    between atoms: _627  and  _628
REMARK  247  A    between atoms: _627  and  _630
REMARK  248  A    between atoms: _630  and  _631
REMARK  249  A    between atoms: _636  and  _638
REMARK  250  A    between atoms: _638  and  _639
REMARK  251  A    between atoms: _638  and  _641
REMARK  252  A    between atoms: _641  and  _642
REMARK  253  A    between atoms: _647  and  _649
REMARK  254  A    between atoms: _649  and  _650
REMARK  255  A    between atoms: _649  and  _652
REMARK  256  A    between atoms: _652  and  _653
REMARK  257  A    between atoms: _656  and  _658
REMARK  258  A    between atoms: _658  and  _659
REMARK  259  A    between atoms: _662  and  _664
REMARK  260  A    between atoms: _664  and  _665
REMARK  261  A    between atoms: _664  and  _667
REMARK  262  A    between atoms: _667  and  _668
REMARK  263  A    between atoms: _673  and  _674
REMARK  264  A    between atoms: _676  and  _678
REMARK  265  A    between atoms: _678  and  _679
REMARK  266  A    between atoms: _678  and  _681
REMARK  267  A    between atoms: _681  and  _682
REMARK  268  A    between atoms: _687  and  _688
REMARK  269  A    between atoms: _690  and  _692
REMARK  270  A    between atoms: _692  and  _693
REMARK  271  A    between atoms: _692  and  _695
REMARK  272  A    between atoms: _698  and  _700
REMARK  273  A    between atoms: _700  and  _701
REMARK  274  A    between atoms: _700  and  _703
REMARK  275  A    between atoms: _703  and  _704
REMARK  276  A    between atoms: _709  and  _711
REMARK  277  A    between atoms: _711  and  _712
REMARK  278  A    between atoms: _715  and  _717
REMARK  279  A    between atoms: _717  and  _718
REMARK  280  A    between atoms: _717  and  _720
REMARK  281  A    between atoms: _720  and  _721
REMARK  282  A    between atoms: _721  and  _722
REMARK  283  A    between atoms: _722  and  _723
REMARK  284  A    between atoms: _732  and  _734
REMARK  285  A    between atoms: _734  and  _735
REMARK  286  A    between atoms: _734  and  _737
REMARK  287  A    between atoms: _737  and  _738
REMARK  288  A    between atoms: _741  and  _743
REMARK  289  A    between atoms: _743  and  _744
REMARK  290  A    between atoms: _743  and  _746
REMARK  291  A    between atoms: _746  and  _747
REMARK  292  A    between atoms: _750  and  _752
REMARK  293  A    between atoms: _752  and  _753
REMARK  294  A    between atoms: _752  and  _755
REMARK  295  A    between atoms: _755  and  _756
REMARK  296  A    between atoms: _797  and  _800
REMARK                            x       y       z     vdW  Elec       q    Type
REMARK                         _______ _______ _______ _____ _____    ______ ____
ROOT
ATOM      1  O   HOH     1      -4.076  20.211  16.172  0.00  0.00    +0.000 OA
ENDROOT
TORSDOF 0
REMARK  Name = ../refined-set-2016/1b1h/1b1h_pocket.pdb
REMARK  296 active torsions:
REMARK  status: ('A' for Active; 'I' for Inactive)
REMARK    1  A    between atoms: _1  and  _3
REMARK    2  A    between atoms: _3  and  _4
REMARK    3  A    between atoms: _3  and  _6
REMARK    4  A    between atoms: _6  and  _7
REMARK    5  A    between atoms: _12  and  _14
REMARK    6  A    between atoms: _14  and  _15
REMARK    7  A    between atoms: _17  and  _19
REMARK    8  A    between atoms: _19  and  _20
REMARK    9  A    between atoms: _19  and  _22
REMARK   10  A    between atoms: _22  and  _23
REMARK   11  A    between atoms: _25  and  _27
REMARK   12  A    between atoms: _27  and  _28
REMARK   13  A    between atoms: _27  and  _30
REMARK   14  A    between atoms: _30  and  _31
REMARK   15  A    between atoms: _31  and  _32
REMARK   16  A    between atoms: _37  and  _39
REMARK   17  A    between atoms: _39  and  _40
REMARK   18  A    between atoms: _39  and  _42
REMARK   19  A    between atoms: _42  and  _43
REMARK   20  A    between atoms: _46  and  _48
REMARK   21  A    between atoms: _48  and  _49
REMARK   22  A    between atoms: _48  and  _51
REMARK   23  A    between atoms: _51  and  _52
REMARK   24  A    between atoms: _52  and  _53
REMARK   25  A    between atoms: _56  and  _58
REMARK   26  A    between atoms: _58  and  _59
REMARK   27  A    between atoms: _61  and  _63
REMARK   28  A    between atoms: _63  and  _64
REMARK   29  A    between atoms: _63  and  _66
REMARK   30  A    between atoms: _70  and  _71
REMARK   31  A    between atoms: _76  and  _78
REMARK   32  A    between atoms: _78  and  _79
REMARK   33  A    between atoms: _78  and  _81
REMARK   34  A    between atoms: _81  and  _82
REMARK   35  A    between atoms: _82  and  _83
REMARK   36  A    between atoms: _86  and  _88
REMARK   37  A    between atoms: _88  and  _89
REMARK   38  A    between atoms: _88  and  _91
REMARK   39  A    between atoms: _91  and  _92
REMARK   40  A    between atoms: _94  and  _96
REMARK   41  A    between atoms: _96  and  _97
REMARK   42  A    between atoms: _96  and  _99
REMARK   43  A    between atoms: _99  and  _100
REMARK   44  A    between atoms: _105  and  _107
REMARK   45  A    between atoms: _107  and  _108
REMARK   46  A    between atoms: _107  and  _110
REMARK   47  A    between atoms: _110  and  _111
REMARK   48  A    between atoms: _111  and  _112
REMARK   49  A    between atoms: _112  and  _113
REMARK   50  A    between atoms: _123  and  _124
REMARK   51  A    between atoms: _129  and  _131
REMARK   52  A    between atoms: _131  and  _132
REMARK   53  A    between atoms: _131  and  _134
REMARK   54  A    between atoms: _134  and  _135
REMARK   55  A    between atoms: _140  and  _141
REMARK   56  A    between atoms: _143  and  _145
REMARK   57  A    between atoms: _145  and  _146
REMARK   58  A    between atoms: _145  and  _148
REMARK   59  A    between atoms: _148  and  _149
REMARK   60  A    between atoms: _154  and  _155
REMARK   61  A    between atoms: _157  and  _159
REMARK   62  A    between atoms: _159  and  _160
REMARK   63  A    between atoms: _159  and  _162
REMARK   64  A    between atoms: _165  and  _167
REMARK   65  A    between atoms: _167  and  _168
REMARK   66  A    between atoms: _167  and  _170
REMARK   67  A    between atoms: _170  and  _171
REMARK   68  A    between atoms: _177  and  _178
REMARK   69  A    between atoms: _183  and  _185
REMARK   70  A    between atoms: _185  and  _186
REMARK   71  A    between atoms: _185  and  _188
REMARK   72  A    between atoms: _188  and  _189
REMARK   73  A    between atoms: _191  and  _193
REMARK   74  A    between atoms: _193  and  _194
REMARK   75  A    between atoms: _193  and  _196
REMARK   76  A    between atoms: _196  and  _197
REMARK   77  A    between atoms: _197  and  _198
REMARK   78  A    between atoms: _201  and  _203
REMARK   79  A    between atoms: _203  and  _204
REMARK   80  A    between atoms: _203  and  _206
REMARK   81  A    between atoms: _206  and  _207
REMARK   82  A    between atoms: _212  and  _213
REMARK   83  A    between atoms: _215  and  _217
REMARK   84  A    between atoms: _217  and  _218
REMARK   85  A    between atoms: _217  and  _220
REMARK   86  A    between atoms: _220  and  _221
REMARK   87  A    between atoms: _226  and  _228
REMARK   88  A    between atoms: _228  and  _229
REMARK   89  A    between atoms: _228  and  _231
REMARK   90  A    between atoms: _231  and  _232
REMARK   91  A    between atoms: _237  and  _239
REMARK   92  A    between atoms: _239  and  _240
REMARK   93  A    between atoms: _239  and  _242
REMARK   94  A    between atoms: _242  and  _243
REMARK   95  A    between atoms: _243  and  _244
REMARK   96  A    between atoms: _246  and  _248
REMARK   97  A    between atoms: _248  and  _249
REMARK   98  A    between atoms: _248  and  _251
REMARK   99  A    between atoms: _251  and  _252
REMARK  100  A    between atoms: _257  and  _258
REMARK  101  A    between atoms: _260  and  _262
REMARK  102  A    between atoms: _262  and  _263
REMARK  103  A    between atoms: _262  and  _265
REMARK  104  A    between atoms: _265  and  _266
REMARK  105  A    between atoms: _269  and  _271
REMARK  106  A    between atoms: _271  and  _272
REMARK  107  A    between atoms: _271  and  _274
REMARK  108  A    between atoms: _274  and  _275
REMARK  109  A    between atoms: _275  and  _558
REMARK  110  A    between atoms: _276  and  _278
REMARK  111  A    between atoms: _278  and  _279
REMARK  112  A    between atoms: _278  and  _281
REMARK  113  A    between atoms: _281  and  _282
REMARK  114  A    between atoms: _285  and  _287
REMARK  115  A    between atoms: _287  and  _288
REMARK  116  A    between atoms: _287  and  _290
REMARK  117  A    between atoms: _290  and  _291
REMARK  118  A    between atoms: _296  and  _297
REMARK  119  A    between atoms: _299  and  _301
REMARK  120  A    between atoms: _301  and  _302
REMARK  121  A    between atoms: _301  and  _304
REMARK  122  A    between atoms: _304  and  _305
REMARK  123  A    between atoms: _310  and  _311
REMARK  124  A    between atoms: _313  and  _315
REMARK  125  A    between atoms: _315  and  _316
REMARK  126  A    between atoms: _315  and  _318
REMARK  127  A    between atoms: _318  and  _319
REMARK  128  A    between atoms: _319  and  _320
REMARK  129  A    between atoms: _323  and  _325
REMARK  130  A    between atoms: _325  and  _326
REMARK  131  A    between atoms: _325  and  _328
REMARK  132  A    between atoms: _328  and  _329
REMARK  133  A    between atoms: _334  and  _335
REMARK  134  A    between atoms: _337  and  _339
REMARK  135  A    between atoms: _339  and  _340
REMARK  136  A    between atoms: _339  and  _342
REMARK  137  A    between atoms: _342  and  _343
REMARK  138  A    between atoms: _348  and  _350
REMARK  139  A    between atoms: _350  and  _351
REMARK  140  A    between atoms: _350  and  _353
REMARK  141  A    between atoms: _353  and  _354
REMARK  142  A    between atoms: _357  and  _359
REMARK  143  A    between atoms: _359  and  _360
REMARK  144  A    between atoms: _359  and  _362
REMARK  145  A    between atoms: _362  and  _363
REMARK  146  A    between atoms: _368  and  _370
REMARK  147  A    between atoms: _370  and  _371
REMARK  148  A    between atoms: _370  and  _373
REMARK  149  A    between atoms: _373  and  _374
REMARK  150  A    between atoms: _384  and  _386
REMARK  151  A    between atoms: _386  and  _387
REMARK  152  A    between atoms: _386  and  _389
REMARK  153  A    between atoms: _389  and  _390
REMARK  154  A    between atoms: _390  and  _391
REMARK  155  A    between atoms: _391  and  _392
REMARK  156  A    between atoms: _392  and  _393
REMARK  157  A    between atoms: _397  and  _399
REMARK  158  A    between atoms: _399  and  _400
REMARK  159  A    between atoms: _399  and  _402
REMARK  160  A    between atoms: _402  and  _403
REMARK  161  A    between atoms: _406  and  _408
REMARK  162  A    between atoms: _408  and  _409
REMARK  163  A    between atoms: _408  and  _411
REMARK  164  A    between atoms: _411  and  _412
REMARK  165  A    between atoms: _418  and  _420
REMARK  166  A    between atoms: _420  and  _421
REMARK  167  A    between atoms: _420  and  _423
REMARK  168  A    between atoms: _423  and  _424
REMARK  169  A    between atoms: _427  and  _429
REMARK  170  A    between atoms: _429  and  _430
REMARK  171  A    between atoms: _429  and  _432
REMARK  172  A    between atoms: _432  and  _433
REMARK  173  A    between atoms: _436  and  _438
REMARK  174  A    between atoms: _438  and  _439
REMARK  175  A    between atoms: _438  and  _441
REMARK  176  A    between atoms: _441  and  _442
REMARK  177  A    between atoms: _445  and  _447
REMARK  178  A    between atoms: _447  and  _448
REMARK  179  A    between atoms: _447  and  _450
REMARK  180  A    between atoms: _450  and  _451
REMARK  181  A    between atoms: _451  and  _452
REMARK  182  A    between atoms: _452  and  _453
REMARK  183  A    between atoms: _462  and  _464
REMARK  184  A    between atoms: _464  and  _465
REMARK  185  A    between atoms: _464  and  _467
REMARK  186  A    between atoms: _467  and  _468
REMARK  187  A    between atoms: _473  and  _475
REMARK  188  A    between atoms: _475  and  _476
REMARK  189  A    between atoms: _475  and  _478
REMARK  190  A    between atoms: _478  and  _479
REMARK  191  A    between atoms: _479  and  _480
REMARK  192  A    between atoms: _485  and  _487
REMARK  193  A    between atoms: _487  and  _488
REMARK  194  A    between atoms: _490  and  _492
REMARK  195  A    between atoms: _492  and  _493
REMARK  196  A    between atoms: _492  and  _495
REMARK  197  A    between atoms: _495  and  _496
REMARK  198  A    between atoms: _502  and  _504
REMARK  199  A    between atoms: _504  and  _505
REMARK  200  A    between atoms: _508  and  _510
REMARK  201  A    between atoms: _510  and  _511
REMARK  202  A    between atoms: _510  and  _513
REMARK  203  A    between atoms: _513  and  _514
REMARK  204  A    between atoms: _514  and  _515
REMARK  205  A    between atoms: _515  and  _516
REMARK  206  A    between atoms: _525  and  _527
REMARK  207  A    between atoms: _527  and  _528
REMARK  208  A    between atoms: _531  and  _533
REMARK  209  A    between atoms: _533  and  _534
REMARK  210  A    between atoms: _536  and  _538
REMARK  211  A    between atoms: _538  and  _539
REMARK  212  A    between atoms: _538  and  _541
REMARK  213  A    between atoms: _541  and  _542
REMARK  214  A    between atoms: _552  and  _554
REMARK  215  A    between atoms: _554  and  _555
REMARK  216  A    between atoms: _554  and  _557
REMARK  217  A    between atoms: _557  and  _558
REMARK  218  A    between atoms: _559  and  _561
REMARK  219  A    between atoms: _561  and  _562
REMARK  220  A    between atoms: _565  and  _567
REMARK  221  A    between atoms: _567  and  _568
REMARK  222  A    between atoms: _567  and  _570
REMARK  223  A    between atoms: _570  and  _571
REMARK  224  A    between atoms: _574  and  _576
REMARK  225  A    between atoms: _576  and  _577
REMARK  226  A    between atoms: _576  and  _579
REMARK  227  A    between atoms: _579  and  _580
REMARK  228  A    between atoms: _585  and  _586
REMARK  229  A    between atoms: _588  and  _590
REMARK  230  A    between atoms: _590  and  _591
REMARK  231  A    between atoms: _590  and  _593
REMARK  232  A    between atoms: _593  and  _594
REMARK  233  A    between atoms: _596  and  _598
REMARK  234  A    between atoms: _598  and  _599
REMARK  235  A    between atoms: _598  and  _601
REMARK  236  A    between atoms: _601  and  _602
REMARK  237  A    between atoms: _608  and  _610
REMARK  238  A    between atoms: _610  and  _611
REMARK  239  A    between atoms: _610  and  _613
REMARK  240  A    between atoms: _613  and  _614
REMARK  241  A    between atoms: _617  and  _619
REMARK  242  A    between atoms: _619  and  _620
REMARK  243  A    between atoms: _619  and  _622
REMARK  244  A    between atoms: _622  and  _623
REMARK  245  A    between atoms: _625  and  _627
REMARK  246  A    between atoms: _627  and  _628
REMARK  247  A    between atoms: _627  and  _630
REMARK  248  A    between atoms: _630  and  _631
REMARK  249  A    between atoms: _636  and  _638
REMARK  250  A    between atoms: _638  and  _639
REMARK  251  A    between atoms: _638  and  _641
REMARK  252  A    between atoms: _641  and  _642
REMARK  253  A    between atoms: _647  and  _649
REMARK  254  A    between atoms: _649  and  _650
REMARK  255  A    between atoms: _649  and  _652
REMARK  256  A    between atoms: _652  and  _653
REMARK  257  A    between atoms: _656  and  _658
REMARK  258  A    between atoms: _658  and  _659
REMARK  259  A    between atoms: _662  and  _664
REMARK  260  A    between atoms: _664  and  _665
REMARK  261  A    between atoms: _664  and  _667
REMARK  262  A    between atoms: _667  and  _668
REMARK  263  A    between atoms: _673  and  _674
REMARK  264  A    between atoms: _676  and  _678
REMARK  265  A    between atoms: _678  and  _679
REMARK  266  A    between atoms: _678  and  _681
REMARK  267  A    between atoms: _681  and  _682
REMARK  268  A    between atoms: _687  and  _688
REMARK  269  A    between atoms: _690  and  _692
REMARK  270  A    between atoms: _692  and  _693
REMARK  271  A    between atoms: _692  and  _695
REMARK  272  A    between atoms: _698  and  _700
REMARK  273  A    between atoms: _700  and  _701
REMARK  274  A    between atoms: _700  and  _703
REMARK  275  A    between atoms: _703  and  _704
REMARK  276  A    between atoms: _709  and  _711
REMARK  277  A    between atoms: _711  and  _712
REMARK  278  A    between atoms: _715  and  _717
REMARK  279  A    between atoms: _717  and  _718
REMARK  280  A    between atoms: _717  and  _720
REMARK  281  A    between atoms: _720  and  _721
REMARK  282  A    between atoms: _721  and  _722
REMARK  283  A    between atoms: _722  and  _723
REMARK  284  A    between atoms: _732  and  _734
REMARK  285  A    between atoms: _734  and  _735
REMARK  286  A    between atoms: _734  and  _737
REMARK  287  A    between atoms: _737  and  _738
REMARK  288  A    between atoms: _741  and  _743
REMARK  289  A    between atoms: _743  and  _744
REMARK  290  A    between atoms: _743  and  _746
REMARK  291  A    between atoms: _746  and  _747
REMARK  292  A    between atoms: _750  and  _752
REMARK  293  A    between atoms: _752  and  _753
REMARK  294  A    between atoms: _752  and  _755
REMARK  295  A    between atoms: _755  and  _756
REMARK  296  A    between atoms: _797  and  _800
REMARK                            x       y       z     vdW  Elec       q    Type
REMARK                         _______ _______ _______ _____ _____    ______ ____
ROOT
ATOM      1  O   HOH     1       9.662  22.744  18.359  0.00  0.00    +0.000 OA
ENDROOT
TORSDOF 0
REMARK  Name = ../refined-set-2016/1b1h/1b1h_pocket.pdb
REMARK  296 active torsions:
REMARK  status: ('A' for Active; 'I' for Inactive)
REMARK    1  A    between atoms: _1  and  _3
REMARK    2  A    between atoms: _3  and  _4
REMARK    3  A    between atoms: _3  and  _6
REMARK    4  A    between atoms: _6  and  _7
REMARK    5  A    between atoms: _12  and  _14
REMARK    6  A    between atoms: _14  and  _15
REMARK    7  A    between atoms: _17  and  _19
REMARK    8  A    between atoms: _19  and  _20
REMARK    9  A    between atoms: _19  and  _22
REMARK   10  A    between atoms: _22  and  _23
REMARK   11  A    between atoms: _25  and  _27
REMARK   12  A    between atoms: _27  and  _28
REMARK   13  A    between atoms: _27  and  _30
REMARK   14  A    between atoms: _30  and  _31
REMARK   15  A    between atoms: _31  and  _32
REMARK   16  A    between atoms: _37  and  _39
REMARK   17  A    between atoms: _39  and  _40
REMARK   18  A    between atoms: _39  and  _42
REMARK   19  A    between atoms: _42  and  _43
REMARK   20  A    between atoms: _46  and  _48
REMARK   21  A    between atoms: _48  and  _49
REMARK   22  A    between atoms: _48  and  _51
REMARK   23  A    between atoms: _51  and  _52
REMARK   24  A    between atoms: _52  and  _53
REMARK   25  A    between atoms: _56  and  _58
REMARK   26  A    between atoms: _58  and  _59
REMARK   27  A    between atoms: _61  and  _63
REMARK   28  A    between atoms: _63  and  _64
REMARK   29  A    between atoms: _63  and  _66
REMARK   30  A    between atoms: _70  and  _71
REMARK   31  A    between atoms: _76  and  _78
REMARK   32  A    between atoms: _78  and  _79
REMARK   33  A    between atoms: _78  and  _81
REMARK   34  A    between atoms: _81  and  _82
REMARK   35  A    between atoms: _82  and  _83
REMARK   36  A    between atoms: _86  and  _88
REMARK   37  A    between atoms: _88  and  _89
REMARK   38  A    between atoms: _88  and  _91
REMARK   39  A    between atoms: _91  and  _92
REMARK   40  A    between atoms: _94  and  _96
REMARK   41  A    between atoms: _96  and  _97
REMARK   42  A    between atoms: _96  and  _99
REMARK   43  A    between atoms: _99  and  _100
REMARK   44  A    between atoms: _105  and  _107
REMARK   45  A    between atoms: _107  and  _108
REMARK   46  A    between atoms: _107  and  _110
REMARK   47  A    between atoms: _110  and  _111
REMARK   48  A    between atoms: _111  and  _112
REMARK   49  A    between atoms: _112  and  _113
REMARK   50  A    between atoms: _123  and  _124
REMARK   51  A    between atoms: _129  and  _131
REMARK   52  A    between atoms: _131  and  _132
REMARK   53  A    between atoms: _131  and  _134
REMARK   54  A    between atoms: _134  and  _135
REMARK   55  A    between atoms: _140  and  _141
REMARK   56  A    between atoms: _143  and  _145
REMARK   57  A    between atoms: _145  and  _146
REMARK   58  A    between atoms: _145  and  _148
REMARK   59  A    between atoms: _148  and  _149
REMARK   60  A    between atoms: _154  and  _155
REMARK   61  A    between atoms: _157  and  _159
REMARK   62  A    between atoms: _159  and  _160
REMARK   63  A    between atoms: _159  and  _162
REMARK   64  A    between atoms: _165  and  _167
REMARK   65  A    between atoms: _167  and  _168
REMARK   66  A    between atoms: _167  and  _170
REMARK   67  A    between atoms: _170  and  _171
REMARK   68  A    between atoms: _177  and  _178
REMARK   69  A    between atoms: _183  and  _185
REMARK   70  A    between atoms: _185  and  _186
REMARK   71  A    between atoms: _185  and  _188
REMARK   72  A    between atoms: _188  and  _189
REMARK   73  A    between atoms: _191  and  _193
REMARK   74  A    between atoms: _193  and  _194
REMARK   75  A    between atoms: _193  and  _196
REMARK   76  A    between atoms: _196  and  _197
REMARK   77  A    between atoms: _197  and  _198
REMARK   78  A    between atoms: _201  and  _203
REMARK   79  A    between atoms: _203  and  _204
REMARK   80  A    between atoms: _203  and  _206
REMARK   81  A    between atoms: _206  and  _207
REMARK   82  A    between atoms: _212  and  _213
REMARK   83  A    between atoms: _215  and  _217
REMARK   84  A    between atoms: _217  and  _218
REMARK   85  A    between atoms: _217  and  _220
REMARK   86  A    between atoms: _220  and  _221
REMARK   87  A    between atoms: _226  and  _228
REMARK   88  A    between atoms: _228  and  _229
REMARK   89  A    between atoms: _228  and  _231
REMARK   90  A    between atoms: _231  and  _232
REMARK   91  A    between atoms: _237  and  _239
REMARK   92  A    between atoms: _239  and  _240
REMARK   93  A    between atoms: _239  and  _242
REMARK   94  A    between atoms: _242  and  _243
REMARK   95  A    between atoms: _243  and  _244
REMARK   96  A    between atoms: _246  and  _248
REMARK   97  A    between atoms: _248  and  _249
REMARK   98  A    between atoms: _248  and  _251
REMARK   99  A    between atoms: _251  and  _252
REMARK  100  A    between atoms: _257  and  _258
REMARK  101  A    between atoms: _260  and  _262
REMARK  102  A    between atoms: _262  and  _263
REMARK  103  A    between atoms: _262  and  _265
REMARK  104  A    between atoms: _265  and  _266
REMARK  105  A    between atoms: _269  and  _271
REMARK  106  A    between atoms: _271  and  _272
REMARK  107  A    between atoms: _271  and  _274
REMARK  108  A    between atoms: _274  and  _275
REMARK  109  A    between atoms: _275  and  _558
REMARK  110  A    between atoms: _276  and  _278
REMARK  111  A    between atoms: _278  and  _279
REMARK  112  A    between atoms: _278  and  _281
REMARK  113  A    between atoms: _281  and  _282
REMARK  114  A    between atoms: _285  and  _287
REMARK  115  A    between atoms: _287  and  _288
REMARK  116  A    between atoms: _287  and  _290
REMARK  117  A    between atoms: _290  and  _291
REMARK  118  A    between atoms: _296  and  _297
REMARK  119  A    between atoms: _299  and  _301
REMARK  120  A    between atoms: _301  and  _302
REMARK  121  A    between atoms: _301  and  _304
REMARK  122  A    between atoms: _304  and  _305
REMARK  123  A    between atoms: _310  and  _311
REMARK  124  A    between atoms: _313  and  _315
REMARK  125  A    between atoms: _315  and  _316
REMARK  126  A    between atoms: _315  and  _318
REMARK  127  A    between atoms: _318  and  _319
REMARK  128  A    between atoms: _319  and  _320
REMARK  129  A    between atoms: _323  and  _325
REMARK  130  A    between atoms: _325  and  _326
REMARK  131  A    between atoms: _325  and  _328
REMARK  132  A    between atoms: _328  and  _329
REMARK  133  A    between atoms: _334  and  _335
REMARK  134  A    between atoms: _337  and  _339
REMARK  135  A    between atoms: _339  and  _340
REMARK  136  A    between atoms: _339  and  _342
REMARK  137  A    between atoms: _342  and  _343
REMARK  138  A    between atoms: _348  and  _350
REMARK  139  A    between atoms: _350  and  _351
REMARK  140  A    between atoms: _350  and  _353
REMARK  141  A    between atoms: _353  and  _354
REMARK  142  A    between atoms: _357  and  _359
REMARK  143  A    between atoms: _359  and  _360
REMARK  144  A    between atoms: _359  and  _362
REMARK  145  A    between atoms: _362  and  _363
REMARK  146  A    between atoms: _368  and  _370
REMARK  147  A    between atoms: _370  and  _371
REMARK  148  A    between atoms: _370  and  _373
REMARK  149  A    between atoms: _373  and  _374
REMARK  150  A    between atoms: _384  and  _386
REMARK  151  A    between atoms: _386  and  _387
REMARK  152  A    between atoms: _386  and  _389
REMARK  153  A    between atoms: _389  and  _390
REMARK  154  A    between atoms: _390  and  _391
REMARK  155  A    between atoms: _391  and  _392
REMARK  156  A    between atoms: _392  and  _393
REMARK  157  A    between atoms: _397  and  _399
REMARK  158  A    between atoms: _399  and  _400
REMARK  159  A    between atoms: _399  and  _402
REMARK  160  A    between atoms: _402  and  _403
REMARK  161  A    between atoms: _406  and  _408
REMARK  162  A    between atoms: _408  and  _409
REMARK  163  A    between atoms: _408  and  _411
REMARK  164  A    between atoms: _411  and  _412
REMARK  165  A    between atoms: _418  and  _420
REMARK  166  A    between atoms: _420  and  _421
REMARK  167  A    between atoms: _420  and  _423
REMARK  168  A    between atoms: _423  and  _424
REMARK  169  A    between atoms: _427  and  _429
REMARK  170  A    between atoms: _429  and  _430
REMARK  171  A    between atoms: _429  and  _432
REMARK  172  A    between atoms: _432  and  _433
REMARK  173  A    between atoms: _436  and  _438
REMARK  174  A    between atoms: _438  and  _439
REMARK  175  A    between atoms: _438  and  _441
REMARK  176  A    between atoms: _441  and  _442
REMARK  177  A    between atoms: _445  and  _447
REMARK  178  A    between atoms: _447  and  _448
REMARK  179  A    between atoms: _447  and  _450
REMARK  180  A    between atoms: _450  and  _451
REMARK  181  A    between atoms: _451  and  _452
REMARK  182  A    between atoms: _452  and  _453
REMARK  183  A    between atoms: _462  and  _464
REMARK  184  A    between atoms: _464  and  _465
REMARK  185  A    between atoms: _464  and  _467
REMARK  186  A    between atoms: _467  and  _468
REMARK  187  A    between atoms: _473  and  _475
REMARK  188  A    between atoms: _475  and  _476
REMARK  189  A    between atoms: _475  and  _478
REMARK  190  A    between atoms: _478  and  _479
REMARK  191  A    between atoms: _479  and  _480
REMARK  192  A    between atoms: _485  and  _487
REMARK  193  A    between atoms: _487  and  _488
REMARK  194  A    between atoms: _490  and  _492
REMARK  195  A    between atoms: _492  and  _493
REMARK  196  A    between atoms: _492  and  _495
REMARK  197  A    between atoms: _495  and  _496
REMARK  198  A    between atoms: _502  and  _504
REMARK  199  A    between atoms: _504  and  _505
REMARK  200  A    between atoms: _508  and  _510
REMARK  201  A    between atoms: _510  and  _511
REMARK  202  A    between atoms: _510  and  _513
REMARK  203  A    between atoms: _513  and  _514
REMARK  204  A    between atoms: _514  and  _515
REMARK  205  A    between atoms: _515  and  _516
REMARK  206  A    between atoms: _525  and  _527
REMARK  207  A    between atoms: _527  and  _528
REMARK  208  A    between atoms: _531  and  _533
REMARK  209  A    between atoms: _533  and  _534
REMARK  210  A    between atoms: _536  and  _538
REMARK  211  A    between atoms: _538  and  _539
REMARK  212  A    between atoms: _538  and  _541
REMARK  213  A    between atoms: _541  and  _542
REMARK  214  A    between atoms: _552  and  _554
REMARK  215  A    between atoms: _554  and  _555
REMARK  216  A    between atoms: _554  and  _557
REMARK  217  A    between atoms: _557  and  _558
REMARK  218  A    between atoms: _559  and  _561
REMARK  219  A    between atoms: _561  and  _562
REMARK  220  A    between atoms: _565  and  _567
REMARK  221  A    between atoms: _567  and  _568
REMARK  222  A    between atoms: _567  and  _570
REMARK  223  A    between atoms: _570  and  _571
REMARK  224  A    between atoms: _574  and  _576
REMARK  225  A    between atoms: _576  and  _577
REMARK  226  A    between atoms: _576  and  _579
REMARK  227  A    between atoms: _579  and  _580
REMARK  228  A    between atoms: _585  and  _586
REMARK  229  A    between atoms: _588  and  _590
REMARK  230  A    between atoms: _590  and  _591
REMARK  231  A    between atoms: _590  and  _593
REMARK  232  A    between atoms: _593  and  _594
REMARK  233  A    between atoms: _596  and  _598
REMARK  234  A    between atoms: _598  and  _599
REMARK  235  A    between atoms: _598  and  _601
REMARK  236  A    between atoms: _601  and  _602
REMARK  237  A    between atoms: _608  and  _610
REMARK  238  A    between atoms: _610  and  _611
REMARK  239  A    between atoms: _610  and  _613
REMARK  240  A    between atoms: _613  and  _614
REMARK  241  A    between atoms: _617  and  _619
REMARK  242  A    between atoms: _619  and  _620
REMARK  243  A    between atoms: _619  and  _622
REMARK  244  A    between atoms: _622  and  _623
REMARK  245  A    between atoms: _625  and  _627
REMARK  246  A    between atoms: _627  and  _628
REMARK  247  A    between atoms: _627  and  _630
REMARK  248  A    between atoms: _630  and  _631
REMARK  249  A    between atoms: _636  and  _638
REMARK  250  A    between atoms: _638  and  _639
REMARK  251  A    between atoms: _638  and  _641
REMARK  252  A    between atoms: _641  and  _642
REMARK  253  A    between atoms: _647  and  _649
REMARK  254  A    between atoms: _649  and  _650
REMARK  255  A    between atoms: _649  and  _652
REMARK  256  A    between atoms: _652  and  _653
REMARK  257  A    between atoms: _656  and  _658
REMARK  258  A    between atoms: _658  and  _659
REMARK  259  A    between atoms: _662  and  _664
REMARK  260  A    between atoms: _664  and  _665
REMARK  261  A    between atoms: _664  and  _667
REMARK  262  A    between atoms: _667  and  _668
REMARK  263  A    between atoms: _673  and  _674
REMARK  264  A    between atoms: _676  and  _678
REMARK  265  A    between atoms: _678  and  _679
REMARK  266  A    between atoms: _678  and  _681
REMARK  267  A    between atoms: _681  and  _682
REMARK  268  A    between atoms: _687  and  _688
REMARK  269  A    between atoms: _690  and  _692
REMARK  270  A    between atoms: _692  and  _693
REMARK  271  A    between atoms: _692  and  _695
REMARK  272  A    between atoms: _698  and  _700
REMARK  273  A    between atoms: _700  and  _701
REMARK  274  A    between atoms: _700  and  _703
REMARK  275  A    between atoms: _703  and  _704
REMARK  276  A    between atoms: _709  and  _711
REMARK  277  A    between atoms: _711  and  _712
REMARK  278  A    between atoms: _715  and  _717
REMARK  279  A    between atoms: _717  and  _718
REMARK  280  A    between atoms: _717  and  _720
REMARK  281  A    between atoms: _720  and  _721
REMARK  282  A    between atoms: _721  and  _722
REMARK  283  A    between atoms: _722  and  _723
REMARK  284  A    between atoms: _732  and  _734
REMARK  285  A    between atoms: _734  and  _735
REMARK  286  A    between atoms: _734  and  _737
REMARK  287  A    between atoms: _737  and  _738
REMARK  288  A    between atoms: _741  and  _743
REMARK  289  A    between atoms: _743  and  _744
REMARK  290  A    between atoms: _743  and  _746
REMARK  291  A    between atoms: _746  and  _747
REMARK  292  A    between atoms: _750  and  _752
REMARK  293  A    between atoms: _752  and  _753
REMARK  294  A    between atoms: _752  and  _755
REMARK  295  A    between atoms: _755  and  _756
REMARK  296  A    between atoms: _797  and  _800
REMARK                            x       y       z     vdW  Elec       q    Type
REMARK                         _______ _______ _______ _____ _____    ______ ____
ROOT
ATOM      1  O   HOH     1       1.904  15.120   8.560  0.00  0.00    +0.000 OA
ENDROOT
TORSDOF 0
REMARK  Name = ../refined-set-2016/1b1h/1b1h_pocket.pdb
REMARK  296 active torsions:
REMARK  status: ('A' for Active; 'I' for Inactive)
REMARK    1  A    between atoms: _1  and  _3
REMARK    2  A    between atoms: _3  and  _4
REMARK    3  A    between atoms: _3  and  _6
REMARK    4  A    between atoms: _6  and  _7
REMARK    5  A    between atoms: _12  and  _14
REMARK    6  A    between atoms: _14  and  _15
REMARK    7  A    between atoms: _17  and  _19
REMARK    8  A    between atoms: _19  and  _20
REMARK    9  A    between atoms: _19  and  _22
REMARK   10  A    between atoms: _22  and  _23
REMARK   11  A    between atoms: _25  and  _27
REMARK   12  A    between atoms: _27  and  _28
REMARK   13  A    between atoms: _27  and  _30
REMARK   14  A    between atoms: _30  and  _31
REMARK   15  A    between atoms: _31  and  _32
REMARK   16  A    between atoms: _37  and  _39
REMARK   17  A    between atoms: _39  and  _40
REMARK   18  A    between atoms: _39  and  _42
REMARK   19  A    between atoms: _42  and  _43
REMARK   20  A    between atoms: _46  and  _48
REMARK   21  A    between atoms: _48  and  _49
REMARK   22  A    between atoms: _48  and  _51
REMARK   23  A    between atoms: _51  and  _52
REMARK   24  A    between atoms: _52  and  _53
REMARK   25  A    between atoms: _56  and  _58
REMARK   26  A    between atoms: _58  and  _59
REMARK   27  A    between atoms: _61  and  _63
REMARK   28  A    between atoms: _63  and  _64
REMARK   29  A    between atoms: _63  and  _66
REMARK   30  A    between atoms: _70  and  _71
REMARK   31  A    between atoms: _76  and  _78
REMARK   32  A    between atoms: _78  and  _79
REMARK   33  A    between atoms: _78  and  _81
REMARK   34  A    between atoms: _81  and  _82
REMARK   35  A    between atoms: _82  and  _83
REMARK   36  A    between atoms: _86  and  _88
REMARK   37  A    between atoms: _88  and  _89
REMARK   38  A    between atoms: _88  and  _91
REMARK   39  A    between atoms: _91  and  _92
REMARK   40  A    between atoms: _94  and  _96
REMARK   41  A    between atoms: _96  and  _97
REMARK   42  A    between atoms: _96  and  _99
REMARK   43  A    between atoms: _99  and  _100
REMARK   44  A    between atoms: _105  and  _107
REMARK   45  A    between atoms: _107  and  _108
REMARK   46  A    between atoms: _107  and  _110
REMARK   47  A    between atoms: _110  and  _111
REMARK   48  A    between atoms: _111  and  _112
REMARK   49  A    between atoms: _112  and  _113
REMARK   50  A    between atoms: _123  and  _124
REMARK   51  A    between atoms: _129  and  _131
REMARK   52  A    between atoms: _131  and  _132
REMARK   53  A    between atoms: _131  and  _134
REMARK   54  A    between atoms: _134  and  _135
REMARK   55  A    between atoms: _140  and  _141
REMARK   56  A    between atoms: _143  and  _145
REMARK   57  A    between atoms: _145  and  _146
REMARK   58  A    between atoms: _145  and  _148
REMARK   59  A    between atoms: _148  and  _149
REMARK   60  A    between atoms: _154  and  _155
REMARK   61  A    between atoms: _157  and  _159
REMARK   62  A    between atoms: _159  and  _160
REMARK   63  A    between atoms: _159  and  _162
REMARK   64  A    between atoms: _165  and  _167
REMARK   65  A    between atoms: _167  and  _168
REMARK   66  A    between atoms: _167  and  _170
REMARK   67  A    between atoms: _170  and  _171
REMARK   68  A    between atoms: _177  and  _178
REMARK   69  A    between atoms: _183  and  _185
REMARK   70  A    between atoms: _185  and  _186
REMARK   71  A    between atoms: _185  and  _188
REMARK   72  A    between atoms: _188  and  _189
REMARK   73  A    between atoms: _191  and  _193
REMARK   74  A    between atoms: _193  and  _194
REMARK   75  A    between atoms: _193  and  _196
REMARK   76  A    between atoms: _196  and  _197
REMARK   77  A    between atoms: _197  and  _198
REMARK   78  A    between atoms: _201  and  _203
REMARK   79  A    between atoms: _203  and  _204
REMARK   80  A    between atoms: _203  and  _206
REMARK   81  A    between atoms: _206  and  _207
REMARK   82  A    between atoms: _212  and  _213
REMARK   83  A    between atoms: _215  and  _217
REMARK   84  A    between atoms: _217  and  _218
REMARK   85  A    between atoms: _217  and  _220
REMARK   86  A    between atoms: _220  and  _221
REMARK   87  A    between atoms: _226  and  _228
REMARK   88  A    between atoms: _228  and  _229
REMARK   89  A    between atoms: _228  and  _231
REMARK   90  A    between atoms: _231  and  _232
REMARK   91  A    between atoms: _237  and  _239
REMARK   92  A    between atoms: _239  and  _240
REMARK   93  A    between atoms: _239  and  _242
REMARK   94  A    between atoms: _242  and  _243
REMARK   95  A    between atoms: _243  and  _244
REMARK   96  A    between atoms: _246  and  _248
REMARK   97  A    between atoms: _248  and  _249
REMARK   98  A    between atoms: _248  and  _251
REMARK   99  A    between atoms: _251  and  _252
REMARK  100  A    between atoms: _257  and  _258
REMARK  101  A    between atoms: _260  and  _262
REMARK  102  A    between atoms: _262  and  _263
REMARK  103  A    between atoms: _262  and  _265
REMARK  104  A    between atoms: _265  and  _266
REMARK  105  A    between atoms: _269  and  _271
REMARK  106  A    between atoms: _271  and  _272
REMARK  107  A    between atoms: _271  and  _274
REMARK  108  A    between atoms: _274  and  _275
REMARK  109  A    between atoms: _275  and  _558
REMARK  110  A    between atoms: _276  and  _278
REMARK  111  A    between atoms: _278  and  _279
REMARK  112  A    between atoms: _278  and  _281
REMARK  113  A    between atoms: _281  and  _282
REMARK  114  A    between atoms: _285  and  _287
REMARK  115  A    between atoms: _287  and  _288
REMARK  116  A    between atoms: _287  and  _290
REMARK  117  A    between atoms: _290  and  _291
REMARK  118  A    between atoms: _296  and  _297
REMARK  119  A    between atoms: _299  and  _301
REMARK  120  A    between atoms: _301  and  _302
REMARK  121  A    between atoms: _301  and  _304
REMARK  122  A    between atoms: _304  and  _305
REMARK  123  A    between atoms: _310  and  _311
REMARK  124  A    between atoms: _313  and  _315
REMARK  125  A    between atoms: _315  and  _316
REMARK  126  A    between atoms: _315  and  _318
REMARK  127  A    between atoms: _318  and  _319
REMARK  128  A    between atoms: _319  and  _320
REMARK  129  A    between atoms: _323  and  _325
REMARK  130  A    between atoms: _325  and  _326
REMARK  131  A    between atoms: _325  and  _328
REMARK  132  A    between atoms: _328  and  _329
REMARK  133  A    between atoms: _334  and  _335
REMARK  134  A    between atoms: _337  and  _339
REMARK  135  A    between atoms: _339  and  _340
REMARK  136  A    between atoms: _339  and  _342
REMARK  137  A    between atoms: _342  and  _343
REMARK  138  A    between atoms: _348  and  _350
REMARK  139  A    between atoms: _350  and  _351
REMARK  140  A    between atoms: _350  and  _353
REMARK  141  A    between atoms: _353  and  _354
REMARK  142  A    between atoms: _357  and  _359
REMARK  143  A    between atoms: _359  and  _360
REMARK  144  A    between atoms: _359  and  _362
REMARK  145  A    between atoms: _362  and  _363
REMARK  146  A    between atoms: _368  and  _370
REMARK  147  A    between atoms: _370  and  _371
REMARK  148  A    between atoms: _370  and  _373
REMARK  149  A    between atoms: _373  and  _374
REMARK  150  A    between atoms: _384  and  _386
REMARK  151  A    between atoms: _386  and  _387
REMARK  152  A    between atoms: _386  and  _389
REMARK  153  A    between atoms: _389  and  _390
REMARK  154  A    between atoms: _390  and  _391
REMARK  155  A    between atoms: _391  and  _392
REMARK  156  A    between atoms: _392  and  _393
REMARK  157  A    between atoms: _397  and  _399
REMARK  158  A    between atoms: _399  and  _400
REMARK  159  A    between atoms: _399  and  _402
REMARK  160  A    between atoms: _402  and  _403
REMARK  161  A    between atoms: _406  and  _408
REMARK  162  A    between atoms: _408  and  _409
REMARK  163  A    between atoms: _408  and  _411
REMARK  164  A    between atoms: _411  and  _412
REMARK  165  A    between atoms: _418  and  _420
REMARK  166  A    between atoms: _420  and  _421
REMARK  167  A    between atoms: _420  and  _423
REMARK  168  A    between atoms: _423  and  _424
REMARK  169  A    between atoms: _427  and  _429
REMARK  170  A    between atoms: _429  and  _430
REMARK  171  A    between atoms: _429  and  _432
REMARK  172  A    between atoms: _432  and  _433
REMARK  173  A    between atoms: _436  and  _438
REMARK  174  A    between atoms: _438  and  _439
REMARK  175  A    between atoms: _438  and  _441
REMARK  176  A    between atoms: _441  and  _442
REMARK  177  A    between atoms: _445  and  _447
REMARK  178  A    between atoms: _447  and  _448
REMARK  179  A    between atoms: _447  and  _450
REMARK  180  A    between atoms: _450  and  _451
REMARK  181  A    between atoms: _451  and  _452
REMARK  182  A    between atoms: _452  and  _453
REMARK  183  A    between atoms: _462  and  _464
REMARK  184  A    between atoms: _464  and  _465
REMARK  185  A    between atoms: _464  and  _467
REMARK  186  A    between atoms: _467  and  _468
REMARK  187  A    between atoms: _473  and  _475
REMARK  188  A    between atoms: _475  and  _476
REMARK  189  A    between atoms: _475  and  _478
REMARK  190  A    between atoms: _478  and  _479
REMARK  191  A    between atoms: _479  and  _480
REMARK  192  A    between atoms: _485  and  _487
REMARK  193  A    between atoms: _487  and  _488
REMARK  194  A    between atoms: _490  and  _492
REMARK  195  A    between atoms: _492  and  _493
REMARK  196  A    between atoms: _492  and  _495
REMARK  197  A    between atoms: _495  and  _496
REMARK  198  A    between atoms: _502  and  _504
REMARK  199  A    between atoms: _504  and  _505
REMARK  200  A    between atoms: _508  and  _510
REMARK  201  A    between atoms: _510  and  _511
REMARK  202  A    between atoms: _510  and  _513
REMARK  203  A    between atoms: _513  and  _514
REMARK  204  A    between atoms: _514  and  _515
REMARK  205  A    between atoms: _515  and  _516
REMARK  206  A    between atoms: _525  and  _527
REMARK  207  A    between atoms: _527  and  _528
REMARK  208  A    between atoms: _531  and  _533
REMARK  209  A    between atoms: _533  and  _534
REMARK  210  A    between atoms: _536  and  _538
REMARK  211  A    between atoms: _538  and  _539
REMARK  212  A    between atoms: _538  and  _541
REMARK  213  A    between atoms: _541  and  _542
REMARK  214  A    between atoms: _552  and  _554
REMARK  215  A    between atoms: _554  and  _555
REMARK  216  A    between atoms: _554  and  _557
REMARK  217  A    between atoms: _557  and  _558
REMARK  218  A    between atoms: _559  and  _561
REMARK  219  A    between atoms: _561  and  _562
REMARK  220  A    between atoms: _565  and  _567
REMARK  221  A    between atoms: _567  and  _568
REMARK  222  A    between atoms: _567  and  _570
REMARK  223  A    between atoms: _570  and  _571
REMARK  224  A    between atoms: _574  and  _576
REMARK  225  A    between atoms: _576  and  _577
REMARK  226  A    between atoms: _576  and  _579
REMARK  227  A    between atoms: _579  and  _580
REMARK  228  A    between atoms: _585  and  _586
REMARK  229  A    between atoms: _588  and  _590
REMARK  230  A    between atoms: _590  and  _591
REMARK  231  A    between atoms: _590  and  _593
REMARK  232  A    between atoms: _593  and  _594
REMARK  233  A    between atoms: _596  and  _598
REMARK  234  A    between atoms: _598  and  _599
REMARK  235  A    between atoms: _598  and  _601
REMARK  236  A    between atoms: _601  and  _602
REMARK  237  A    between atoms: _608  and  _610
REMARK  238  A    between atoms: _610  and  _611
REMARK  239  A    between atoms: _610  and  _613
REMARK  240  A    between atoms: _613  and  _614
REMARK  241  A    between atoms: _617  and  _619
REMARK  242  A    between atoms: _619  and  _620
REMARK  243  A    between atoms: _619  and  _622
REMARK  244  A    between atoms: _622  and  _623
REMARK  245  A    between atoms: _625  and  _627
REMARK  246  A    between atoms: _627  and  _628
REMARK  247  A    between atoms: _627  and  _630
REMARK  248  A    between atoms: _630  and  _631
REMARK  249  A    between atoms: _636  and  _638
REMARK  250  A    between atoms: _638  and  _639
REMARK  251  A    between atoms: _638  and  _641
REMARK  252  A    between atoms: _641  and  _642
REMARK  253  A    between atoms: _647  and  _649
REMARK  254  A    between atoms: _649  and  _650
REMARK  255  A    between atoms: _649  and  _652
REMARK  256  A    between atoms: _652  and  _653
REMARK  257  A    between atoms: _656  and  _658
REMARK  258  A    between atoms: _658  and  _659
REMARK  259  A    between atoms: _662  and  _664
REMARK  260  A    between atoms: _664  and  _665
REMARK  261  A    between atoms: _664  and  _667
REMARK  262  A    between atoms: _667  and  _668
REMARK  263  A    between atoms: _673  and  _674
REMARK  264  A    between atoms: _676  and  _678
REMARK  265  A    between atoms: _678  and  _679
REMARK  266  A    between atoms: _678  and  _681
REMARK  267  A    between atoms: _681  and  _682
REMARK  268  A    between atoms: _687  and  _688
REMARK  269  A    between atoms: _690  and  _692
REMARK  270  A    between atoms: _692  and  _693
REMARK  271  A    between atoms: _692  and  _695
REMARK  272  A    between atoms: _698  and  _700
REMARK  273  A    between atoms: _700  and  _701
REMARK  274  A    between atoms: _700  and  _703
REMARK  275  A    between atoms: _703  and  _704
REMARK  276  A    between atoms: _709  and  _711
REMARK  277  A    between atoms: _711  and  _712
REMARK  278  A    between atoms: _715  and  _717
REMARK  279  A    between atoms: _717  and  _718
REMARK  280  A    between atoms: _717  and  _720
REMARK  281  A    between atoms: _720  and  _721
REMARK  282  A    between atoms: _721  and  _722
REMARK  283  A    between atoms: _722  and  _723
REMARK  284  A    between atoms: _732  and  _734
REMARK  285  A    between atoms: _734  and  _735
REMARK  286  A    between atoms: _734  and  _737
REMARK  287  A    between atoms: _737  and  _738
REMARK  288  A    between atoms: _741  and  _743
REMARK  289  A    between atoms: _743  and  _744
REMARK  290  A    between atoms: _743  and  _746
REMARK  291  A    between atoms: _746  and  _747
REMARK  292  A    between atoms: _750  and  _752
REMARK  293  A    between atoms: _752  and  _753
REMARK  294  A    between atoms: _752  and  _755
REMARK  295  A    between atoms: _755  and  _756
REMARK  296  A    between atoms: _797  and  _800
REMARK                            x       y       z     vdW  Elec       q    Type
REMARK                         _______ _______ _______ _____ _____    ______ ____
ROOT
ATOM      1  O   HOH     1      10.440  16.107   4.856  0.00  0.00    +0.000 OA
ENDROOT
TORSDOF 0
REMARK  Name = ../refined-set-2016/1b1h/1b1h_pocket.pdb
REMARK  296 active torsions:
REMARK  status: ('A' for Active; 'I' for Inactive)
REMARK    1  A    between atoms: _1  and  _3
REMARK    2  A    between atoms: _3  and  _4
REMARK    3  A    between atoms: _3  and  _6
REMARK    4  A    between atoms: _6  and  _7
REMARK    5  A    between atoms: _12  and  _14
REMARK    6  A    between atoms: _14  and  _15
REMARK    7  A    between atoms: _17  and  _19
REMARK    8  A    between atoms: _19  and  _20
REMARK    9  A    between atoms: _19  and  _22
REMARK   10  A    between atoms: _22  and  _23
REMARK   11  A    between atoms: _25  and  _27
REMARK   12  A    between atoms: _27  and  _28
REMARK   13  A    between atoms: _27  and  _30
REMARK   14  A    between atoms: _30  and  _31
REMARK   15  A    between atoms: _31  and  _32
REMARK   16  A    between atoms: _37  and  _39
REMARK   17  A    between atoms: _39  and  _40
REMARK   18  A    between atoms: _39  and  _42
REMARK   19  A    between atoms: _42  and  _43
REMARK   20  A    between atoms: _46  and  _48
REMARK   21  A    between atoms: _48  and  _49
REMARK   22  A    between atoms: _48  and  _51
REMARK   23  A    between atoms: _51  and  _52
REMARK   24  A    between atoms: _52  and  _53
REMARK   25  A    between atoms: _56  and  _58
REMARK   26  A    between atoms: _58  and  _59
REMARK   27  A    between atoms: _61  and  _63
REMARK   28  A    between atoms: _63  and  _64
REMARK   29  A    between atoms: _63  and  _66
REMARK   30  A    between atoms: _70  and  _71
REMARK   31  A    between atoms: _76  and  _78
REMARK   32  A    between atoms: _78  and  _79
REMARK   33  A    between atoms: _78  and  _81
REMARK   34  A    between atoms: _81  and  _82
REMARK   35  A    between atoms: _82  and  _83
REMARK   36  A    between atoms: _86  and  _88
REMARK   37  A    between atoms: _88  and  _89
REMARK   38  A    between atoms: _88  and  _91
REMARK   39  A    between atoms: _91  and  _92
REMARK   40  A    between atoms: _94  and  _96
REMARK   41  A    between atoms: _96  and  _97
REMARK   42  A    between atoms: _96  and  _99
REMARK   43  A    between atoms: _99  and  _100
REMARK   44  A    between atoms: _105  and  _107
REMARK   45  A    between atoms: _107  and  _108
REMARK   46  A    between atoms: _107  and  _110
REMARK   47  A    between atoms: _110  and  _111
REMARK   48  A    between atoms: _111  and  _112
REMARK   49  A    between atoms: _112  and  _113
REMARK   50  A    between atoms: _123  and  _124
REMARK   51  A    between atoms: _129  and  _131
REMARK   52  A    between atoms: _131  and  _132
REMARK   53  A    between atoms: _131  and  _134
REMARK   54  A    between atoms: _134  and  _135
REMARK   55  A    between atoms: _140  and  _141
REMARK   56  A    between atoms: _143  and  _145
REMARK   57  A    between atoms: _145  and  _146
REMARK   58  A    between atoms: _145  and  _148
REMARK   59  A    between atoms: _148  and  _149
REMARK   60  A    between atoms: _154  and  _155
REMARK   61  A    between atoms: _157  and  _159
REMARK   62  A    between atoms: _159  and  _160
REMARK   63  A    between atoms: _159  and  _162
REMARK   64  A    between atoms: _165  and  _167
REMARK   65  A    between atoms: _167  and  _168
REMARK   66  A    between atoms: _167  and  _170
REMARK   67  A    between atoms: _170  and  _171
REMARK   68  A    between atoms: _177  and  _178
REMARK   69  A    between atoms: _183  and  _185
REMARK   70  A    between atoms: _185  and  _186
REMARK   71  A    between atoms: _185  and  _188
REMARK   72  A    between atoms: _188  and  _189
REMARK   73  A    between atoms: _191  and  _193
REMARK   74  A    between atoms: _193  and  _194
REMARK   75  A    between atoms: _193  and  _196
REMARK   76  A    between atoms: _196  and  _197
REMARK   77  A    between atoms: _197  and  _198
REMARK   78  A    between atoms: _201  and  _203
REMARK   79  A    between atoms: _203  and  _204
REMARK   80  A    between atoms: _203  and  _206
REMARK   81  A    between atoms: _206  and  _207
REMARK   82  A    between atoms: _212  and  _213
REMARK   83  A    between atoms: _215  and  _217
REMARK   84  A    between atoms: _217  and  _218
REMARK   85  A    between atoms: _217  and  _220
REMARK   86  A    between atoms: _220  and  _221
REMARK   87  A    between atoms: _226  and  _228
REMARK   88  A    between atoms: _228  and  _229
REMARK   89  A    between atoms: _228  and  _231
REMARK   90  A    between atoms: _231  and  _232
REMARK   91  A    between atoms: _237  and  _239
REMARK   92  A    between atoms: _239  and  _240
REMARK   93  A    between atoms: _239  and  _242
REMARK   94  A    between atoms: _242  and  _243
REMARK   95  A    between atoms: _243  and  _244
REMARK   96  A    between atoms: _246  and  _248
REMARK   97  A    between atoms: _248  and  _249
REMARK   98  A    between atoms: _248  and  _251
REMARK   99  A    between atoms: _251  and  _252
REMARK  100  A    between atoms: _257  and  _258
REMARK  101  A    between atoms: _260  and  _262
REMARK  102  A    between atoms: _262  and  _263
REMARK  103  A    between atoms: _262  and  _265
REMARK  104  A    between atoms: _265  and  _266
REMARK  105  A    between atoms: _269  and  _271
REMARK  106  A    between atoms: _271  and  _272
REMARK  107  A    between atoms: _271  and  _274
REMARK  108  A    between atoms: _274  and  _275
REMARK  109  A    between atoms: _275  and  _558
REMARK  110  A    between atoms: _276  and  _278
REMARK  111  A    between atoms: _278  and  _279
REMARK  112  A    between atoms: _278  and  _281
REMARK  113  A    between atoms: _281  and  _282
REMARK  114  A    between atoms: _285  and  _287
REMARK  115  A    between atoms: _287  and  _288
REMARK  116  A    between atoms: _287  and  _290
REMARK  117  A    between atoms: _290  and  _291
REMARK  118  A    between atoms: _296  and  _297
REMARK  119  A    between atoms: _299  and  _301
REMARK  120  A    between atoms: _301  and  _302
REMARK  121  A    between atoms: _301  and  _304
REMARK  122  A    between atoms: _304  and  _305
REMARK  123  A    between atoms: _310  and  _311
REMARK  124  A    between atoms: _313  and  _315
REMARK  125  A    between atoms: _315  and  _316
REMARK  126  A    between atoms: _315  and  _318
REMARK  127  A    between atoms: _318  and  _319
REMARK  128  A    between atoms: _319  and  _320
REMARK  129  A    between atoms: _323  and  _325
REMARK  130  A    between atoms: _325  and  _326
REMARK  131  A    between atoms: _325  and  _328
REMARK  132  A    between atoms: _328  and  _329
REMARK  133  A    between atoms: _334  and  _335
REMARK  134  A    between atoms: _337  and  _339
REMARK  135  A    between atoms: _339  and  _340
REMARK  136  A    between atoms: _339  and  _342
REMARK  137  A    between atoms: _342  and  _343
REMARK  138  A    between atoms: _348  and  _350
REMARK  139  A    between atoms: _350  and  _351
REMARK  140  A    between atoms: _350  and  _353
REMARK  141  A    between atoms: _353  and  _354
REMARK  142  A    between atoms: _357  and  _359
REMARK  143  A    between atoms: _359  and  _360
REMARK  144  A    between atoms: _359  and  _362
REMARK  145  A    between atoms: _362  and  _363
REMARK  146  A    between atoms: _368  and  _370
REMARK  147  A    between atoms: _370  and  _371
REMARK  148  A    between atoms: _370  and  _373
REMARK  149  A    between atoms: _373  and  _374
REMARK  150  A    between atoms: _384  and  _386
REMARK  151  A    between atoms: _386  and  _387
REMARK  152  A    between atoms: _386  and  _389
REMARK  153  A    between atoms: _389  and  _390
REMARK  154  A    between atoms: _390  and  _391
REMARK  155  A    between atoms: _391  and  _392
REMARK  156  A    between atoms: _392  and  _393
REMARK  157  A    between atoms: _397  and  _399
REMARK  158  A    between atoms: _399  and  _400
REMARK  159  A    between atoms: _399  and  _402
REMARK  160  A    between atoms: _402  and  _403
REMARK  161  A    between atoms: _406  and  _408
REMARK  162  A    between atoms: _408  and  _409
REMARK  163  A    between atoms: _408  and  _411
REMARK  164  A    between atoms: _411  and  _412
REMARK  165  A    between atoms: _418  and  _420
REMARK  166  A    between atoms: _420  and  _421
REMARK  167  A    between atoms: _420  and  _423
REMARK  168  A    between atoms: _423  and  _424
REMARK  169  A    between atoms: _427  and  _429
REMARK  170  A    between atoms: _429  and  _430
REMARK  171  A    between atoms: _429  and  _432
REMARK  172  A    between atoms: _432  and  _433
REMARK  173  A    between atoms: _436  and  _438
REMARK  174  A    between atoms: _438  and  _439
REMARK  175  A    between atoms: _438  and  _441
REMARK  176  A    between atoms: _441  and  _442
REMARK  177  A    between atoms: _445  and  _447
REMARK  178  A    between atoms: _447  and  _448
REMARK  179  A    between atoms: _447  and  _450
REMARK  180  A    between atoms: _450  and  _451
REMARK  181  A    between atoms: _451  and  _452
REMARK  182  A    between atoms: _452  and  _453
REMARK  183  A    between atoms: _462  and  _464
REMARK  184  A    between atoms: _464  and  _465
REMARK  185  A    between atoms: _464  and  _467
REMARK  186  A    between atoms: _467  and  _468
REMARK  187  A    between atoms: _473  and  _475
REMARK  188  A    between atoms: _475  and  _476
REMARK  189  A    between atoms: _475  and  _478
REMARK  190  A    between atoms: _478  and  _479
REMARK  191  A    between atoms: _479  and  _480
REMARK  192  A    between atoms: _485  and  _487
REMARK  193  A    between atoms: _487  and  _488
REMARK  194  A    between atoms: _490  and  _492
REMARK  195  A    between atoms: _492  and  _493
REMARK  196  A    between atoms: _492  and  _495
REMARK  197  A    between atoms: _495  and  _496
REMARK  198  A    between atoms: _502  and  _504
REMARK  199  A    between atoms: _504  and  _505
REMARK  200  A    between atoms: _508  and  _510
REMARK  201  A    between atoms: _510  and  _511
REMARK  202  A    between atoms: _510  and  _513
REMARK  203  A    between atoms: _513  and  _514
REMARK  204  A    between atoms: _514  and  _515
REMARK  205  A    between atoms: _515  and  _516
REMARK  206  A    between atoms: _525  and  _527
REMARK  207  A    between atoms: _527  and  _528
REMARK  208  A    between atoms: _531  and  _533
REMARK  209  A    between atoms: _533  and  _534
REMARK  210  A    between atoms: _536  and  _538
REMARK  211  A    between atoms: _538  and  _539
REMARK  212  A    between atoms: _538  and  _541
REMARK  213  A    between atoms: _541  and  _542
REMARK  214  A    between atoms: _552  and  _554
REMARK  215  A    between atoms: _554  and  _555
REMARK  216  A    between atoms: _554  and  _557
REMARK  217  A    between atoms: _557  and  _558
REMARK  218  A    between atoms: _559  and  _561
REMARK  219  A    between atoms: _561  and  _562
REMARK  220  A    between atoms: _565  and  _567
REMARK  221  A    between atoms: _567  and  _568
REMARK  222  A    between atoms: _567  and  _570
REMARK  223  A    between atoms: _570  and  _571
REMARK  224  A    between atoms: _574  and  _576
REMARK  225  A    between atoms: _576  and  _577
REMARK  226  A    between atoms: _576  and  _579
REMARK  227  A    between atoms: _579  and  _580
REMARK  228  A    between atoms: _585  and  _586
REMARK  229  A    between atoms: _588  and  _590
REMARK  230  A    between atoms: _590  and  _591
REMARK  231  A    between atoms: _590  and  _593
REMARK  232  A    between atoms: _593  and  _594
REMARK  233  A    between atoms: _596  and  _598
REMARK  234  A    between atoms: _598  and  _599
REMARK  235  A    between atoms: _598  and  _601
REMARK  236  A    between atoms: _601  and  _602
REMARK  237  A    between atoms: _608  and  _610
REMARK  238  A    between atoms: _610  and  _611
REMARK  239  A    between atoms: _610  and  _613
REMARK  240  A    between atoms: _613  and  _614
REMARK  241  A    between atoms: _617  and  _619
REMARK  242  A    between atoms: _619  and  _620
REMARK  243  A    between atoms: _619  and  _622
REMARK  244  A    between atoms: _622  and  _623
REMARK  245  A    between atoms: _625  and  _627
REMARK  246  A    between atoms: _627  and  _628
REMARK  247  A    between atoms: _627  and  _630
REMARK  248  A    between atoms: _630  and  _631
REMARK  249  A    between atoms: _636  and  _638
REMARK  250  A    between atoms: _638  and  _639
REMARK  251  A    between atoms: _638  and  _641
REMARK  252  A    between atoms: _641  and  _642
REMARK  253  A    between atoms: _647  and  _649
REMARK  254  A    between atoms: _649  and  _650
REMARK  255  A    between atoms: _649  and  _652
REMARK  256  A    between atoms: _652  and  _653
REMARK  257  A    between atoms: _656  and  _658
REMARK  258  A    between atoms: _658  and  _659
REMARK  259  A    between atoms: _662  and  _664
REMARK  260  A    between atoms: _664  and  _665
REMARK  261  A    between atoms: _664  and  _667
REMARK  262  A    between atoms: _667  and  _668
REMARK  263  A    between atoms: _673  and  _674
REMARK  264  A    between atoms: _676  and  _678
REMARK  265  A    between atoms: _678  and  _679
REMARK  266  A    between atoms: _678  and  _681
REMARK  267  A    between atoms: _681  and  _682
REMARK  268  A    between atoms: _687  and  _688
REMARK  269  A    between atoms: _690  and  _692
REMARK  270  A    between atoms: _692  and  _693
REMARK  271  A    between atoms: _692  and  _695
REMARK  272  A    between atoms: _698  and  _700
REMARK  273  A    between atoms: _700  and  _701
REMARK  274  A    between atoms: _700  and  _703
REMARK  275  A    between atoms: _703  and  _704
REMARK  276  A    between atoms: _709  and  _711
REMARK  277  A    between atoms: _711  and  _712
REMARK  278  A    between atoms: _715  and  _717
REMARK  279  A    between atoms: _717  and  _718
REMARK  280  A    between atoms: _717  and  _720
REMARK  281  A    between atoms: _720  and  _721
REMARK  282  A    between atoms: _721  and  _722
REMARK  283  A    between atoms: _722  and  _723
REMARK  284  A    between atoms: _732  and  _734
REMARK  285  A    between atoms: _734  and  _735
REMARK  286  A    between atoms: _734  and  _737
REMARK  287  A    between atoms: _737  and  _738
REMARK  288  A    between atoms: _741  and  _743
REMARK  289  A    between atoms: _743  and  _744
REMARK  290  A    between atoms: _743  and  _746
REMARK  291  A    between atoms: _746  and  _747
REMARK  292  A    between atoms: _750  and  _752
REMARK  293  A    between atoms: _752  and  _753
REMARK  294  A    between atoms: _752  and  _755
REMARK  295  A    between atoms: _755  and  _756
REMARK  296  A    between atoms: _797  and  _800
REMARK                            x       y       z     vdW  Elec       q    Type
REMARK                         _______ _______ _______ _____ _____    ______ ____
ROOT
ATOM      1  O   HOH     1      14.467  26.430  19.631  0.00  0.00    +0.000 OA
ENDROOT
TORSDOF 0
REMARK  Name = ../refined-set-2016/1b1h/1b1h_pocket.pdb
REMARK  296 active torsions:
REMARK  status: ('A' for Active; 'I' for Inactive)
REMARK    1  A    between atoms: _1  and  _3
REMARK    2  A    between atoms: _3  and  _4
REMARK    3  A    between atoms: _3  and  _6
REMARK    4  A    between atoms: _6  and  _7
REMARK    5  A    between atoms: _12  and  _14
REMARK    6  A    between atoms: _14  and  _15
REMARK    7  A    between atoms: _17  and  _19
REMARK    8  A    between atoms: _19  and  _20
REMARK    9  A    between atoms: _19  and  _22
REMARK   10  A    between atoms: _22  and  _23
REMARK   11  A    between atoms: _25  and  _27
REMARK   12  A    between atoms: _27  and  _28
REMARK   13  A    between atoms: _27  and  _30
REMARK   14  A    between atoms: _30  and  _31
REMARK   15  A    between atoms: _31  and  _32
REMARK   16  A    between atoms: _37  and  _39
REMARK   17  A    between atoms: _39  and  _40
REMARK   18  A    between atoms: _39  and  _42
REMARK   19  A    between atoms: _42  and  _43
REMARK   20  A    between atoms: _46  and  _48
REMARK   21  A    between atoms: _48  and  _49
REMARK   22  A    between atoms: _48  and  _51
REMARK   23  A    between atoms: _51  and  _52
REMARK   24  A    between atoms: _52  and  _53
REMARK   25  A    between atoms: _56  and  _58
REMARK   26  A    between atoms: _58  and  _59
REMARK   27  A    between atoms: _61  and  _63
REMARK   28  A    between atoms: _63  and  _64
REMARK   29  A    between atoms: _63  and  _66
REMARK   30  A    between atoms: _70  and  _71
REMARK   31  A    between atoms: _76  and  _78
REMARK   32  A    between atoms: _78  and  _79
REMARK   33  A    between atoms: _78  and  _81
REMARK   34  A    between atoms: _81  and  _82
REMARK   35  A    between atoms: _82  and  _83
REMARK   36  A    between atoms: _86  and  _88
REMARK   37  A    between atoms: _88  and  _89
REMARK   38  A    between atoms: _88  and  _91
REMARK   39  A    between atoms: _91  and  _92
REMARK   40  A    between atoms: _94  and  _96
REMARK   41  A    between atoms: _96  and  _97
REMARK   42  A    between atoms: _96  and  _99
REMARK   43  A    between atoms: _99  and  _100
REMARK   44  A    between atoms: _105  and  _107
REMARK   45  A    between atoms: _107  and  _108
REMARK   46  A    between atoms: _107  and  _110
REMARK   47  A    between atoms: _110  and  _111
REMARK   48  A    between atoms: _111  and  _112
REMARK   49  A    between atoms: _112  and  _113
REMARK   50  A    between atoms: _123  and  _124
REMARK   51  A    between atoms: _129  and  _131
REMARK   52  A    between atoms: _131  and  _132
REMARK   53  A    between atoms: _131  and  _134
REMARK   54  A    between atoms: _134  and  _135
REMARK   55  A    between atoms: _140  and  _141
REMARK   56  A    between atoms: _143  and  _145
REMARK   57  A    between atoms: _145  and  _146
REMARK   58  A    between atoms: _145  and  _148
REMARK   59  A    between atoms: _148  and  _149
REMARK   60  A    between atoms: _154  and  _155
REMARK   61  A    between atoms: _157  and  _159
REMARK   62  A    between atoms: _159  and  _160
REMARK   63  A    between atoms: _159  and  _162
REMARK   64  A    between atoms: _165  and  _167
REMARK   65  A    between atoms: _167  and  _168
REMARK   66  A    between atoms: _167  and  _170
REMARK   67  A    between atoms: _170  and  _171
REMARK   68  A    between atoms: _177  and  _178
REMARK   69  A    between atoms: _183  and  _185
REMARK   70  A    between atoms: _185  and  _186
REMARK   71  A    between atoms: _185  and  _188
REMARK   72  A    between atoms: _188  and  _189
REMARK   73  A    between atoms: _191  and  _193
REMARK   74  A    between atoms: _193  and  _194
REMARK   75  A    between atoms: _193  and  _196
REMARK   76  A    between atoms: _196  and  _197
REMARK   77  A    between atoms: _197  and  _198
REMARK   78  A    between atoms: _201  and  _203
REMARK   79  A    between atoms: _203  and  _204
REMARK   80  A    between atoms: _203  and  _206
REMARK   81  A    between atoms: _206  and  _207
REMARK   82  A    between atoms: _212  and  _213
REMARK   83  A    between atoms: _215  and  _217
REMARK   84  A    between atoms: _217  and  _218
REMARK   85  A    between atoms: _217  and  _220
REMARK   86  A    between atoms: _220  and  _221
REMARK   87  A    between atoms: _226  and  _228
REMARK   88  A    between atoms: _228  and  _229
REMARK   89  A    between atoms: _228  and  _231
REMARK   90  A    between atoms: _231  and  _232
REMARK   91  A    between atoms: _237  and  _239
REMARK   92  A    between atoms: _239  and  _240
REMARK   93  A    between atoms: _239  and  _242
REMARK   94  A    between atoms: _242  and  _243
REMARK   95  A    between atoms: _243  and  _244
REMARK   96  A    between atoms: _246  and  _248
REMARK   97  A    between atoms: _248  and  _249
REMARK   98  A    between atoms: _248  and  _251
REMARK   99  A    between atoms: _251  and  _252
REMARK  100  A    between atoms: _257  and  _258
REMARK  101  A    between atoms: _260  and  _262
REMARK  102  A    between atoms: _262  and  _263
REMARK  103  A    between atoms: _262  and  _265
REMARK  104  A    between atoms: _265  and  _266
REMARK  105  A    between atoms: _269  and  _271
REMARK  106  A    between atoms: _271  and  _272
REMARK  107  A    between atoms: _271  and  _274
REMARK  108  A    between atoms: _274  and  _275
REMARK  109  A    between atoms: _275  and  _558
REMARK  110  A    between atoms: _276  and  _278
REMARK  111  A    between atoms: _278  and  _279
REMARK  112  A    between atoms: _278  and  _281
REMARK  113  A    between atoms: _281  and  _282
REMARK  114  A    between atoms: _285  and  _287
REMARK  115  A    between atoms: _287  and  _288
REMARK  116  A    between atoms: _287  and  _290
REMARK  117  A    between atoms: _290  and  _291
REMARK  118  A    between atoms: _296  and  _297
REMARK  119  A    between atoms: _299  and  _301
REMARK  120  A    between atoms: _301  and  _302
REMARK  121  A    between atoms: _301  and  _304
REMARK  122  A    between atoms: _304  and  _305
REMARK  123  A    between atoms: _310  and  _311
REMARK  124  A    between atoms: _313  and  _315
REMARK  125  A    between atoms: _315  and  _316
REMARK  126  A    between atoms: _315  and  _318
REMARK  127  A    between atoms: _318  and  _319
REMARK  128  A    between atoms: _319  and  _320
REMARK  129  A    between atoms: _323  and  _325
REMARK  130  A    between atoms: _325  and  _326
REMARK  131  A    between atoms: _325  and  _328
REMARK  132  A    between atoms: _328  and  _329
REMARK  133  A    between atoms: _334  and  _335
REMARK  134  A    between atoms: _337  and  _339
REMARK  135  A    between atoms: _339  and  _340
REMARK  136  A    between atoms: _339  and  _342
REMARK  137  A    between atoms: _342  and  _343
REMARK  138  A    between atoms: _348  and  _350
REMARK  139  A    between atoms: _350  and  _351
REMARK  140  A    between atoms: _350  and  _353
REMARK  141  A    between atoms: _353  and  _354
REMARK  142  A    between atoms: _357  and  _359
REMARK  143  A    between atoms: _359  and  _360
REMARK  144  A    between atoms: _359  and  _362
REMARK  145  A    between atoms: _362  and  _363
REMARK  146  A    between atoms: _368  and  _370
REMARK  147  A    between atoms: _370  and  _371
REMARK  148  A    between atoms: _370  and  _373
REMARK  149  A    between atoms: _373  and  _374
REMARK  150  A    between atoms: _384  and  _386
REMARK  151  A    between atoms: _386  and  _387
REMARK  152  A    between atoms: _386  and  _389
REMARK  153  A    between atoms: _389  and  _390
REMARK  154  A    between atoms: _390  and  _391
REMARK  155  A    between atoms: _391  and  _392
REMARK  156  A    between atoms: _392  and  _393
REMARK  157  A    between atoms: _397  and  _399
REMARK  158  A    between atoms: _399  and  _400
REMARK  159  A    between atoms: _399  and  _402
REMARK  160  A    between atoms: _402  and  _403
REMARK  161  A    between atoms: _406  and  _408
REMARK  162  A    between atoms: _408  and  _409
REMARK  163  A    between atoms: _408  and  _411
REMARK  164  A    between atoms: _411  and  _412
REMARK  165  A    between atoms: _418  and  _420
REMARK  166  A    between atoms: _420  and  _421
REMARK  167  A    between atoms: _420  and  _423
REMARK  168  A    between atoms: _423  and  _424
REMARK  169  A    between atoms: _427  and  _429
REMARK  170  A    between atoms: _429  and  _430
REMARK  171  A    between atoms: _429  and  _432
REMARK  172  A    between atoms: _432  and  _433
REMARK  173  A    between atoms: _436  and  _438
REMARK  174  A    between atoms: _438  and  _439
REMARK  175  A    between atoms: _438  and  _441
REMARK  176  A    between atoms: _441  and  _442
REMARK  177  A    between atoms: _445  and  _447
REMARK  178  A    between atoms: _447  and  _448
REMARK  179  A    between atoms: _447  and  _450
REMARK  180  A    between atoms: _450  and  _451
REMARK  181  A    between atoms: _451  and  _452
REMARK  182  A    between atoms: _452  and  _453
REMARK  183  A    between atoms: _462  and  _464
REMARK  184  A    between atoms: _464  and  _465
REMARK  185  A    between atoms: _464  and  _467
REMARK  186  A    between atoms: _467  and  _468
REMARK  187  A    between atoms: _473  and  _475
REMARK  188  A    between atoms: _475  and  _476
REMARK  189  A    between atoms: _475  and  _478
REMARK  190  A    between atoms: _478  and  _479
REMARK  191  A    between atoms: _479  and  _480
REMARK  192  A    between atoms: _485  and  _487
REMARK  193  A    between atoms: _487  and  _488
REMARK  194  A    between atoms: _490  and  _492
REMARK  195  A    between atoms: _492  and  _493
REMARK  196  A    between atoms: _492  and  _495
REMARK  197  A    between atoms: _495  and  _496
REMARK  198  A    between atoms: _502  and  _504
REMARK  199  A    between atoms: _504  and  _505
REMARK  200  A    between atoms: _508  and  _510
REMARK  201  A    between atoms: _510  and  _511
REMARK  202  A    between atoms: _510  and  _513
REMARK  203  A    between atoms: _513  and  _514
REMARK  204  A    between atoms: _514  and  _515
REMARK  205  A    between atoms: _515  and  _516
REMARK  206  A    between atoms: _525  and  _527
REMARK  207  A    between atoms: _527  and  _528
REMARK  208  A    between atoms: _531  and  _533
REMARK  209  A    between atoms: _533  and  _534
REMARK  210  A    between atoms: _536  and  _538
REMARK  211  A    between atoms: _538  and  _539
REMARK  212  A    between atoms: _538  and  _541
REMARK  213  A    between atoms: _541  and  _542
REMARK  214  A    between atoms: _552  and  _554
REMARK  215  A    between atoms: _554  and  _555
REMARK  216  A    between atoms: _554  and  _557
REMARK  217  A    between atoms: _557  and  _558
REMARK  218  A    between atoms: _559  and  _561
REMARK  219  A    between atoms: _561  and  _562
REMARK  220  A    between atoms: _565  and  _567
REMARK  221  A    between atoms: _567  and  _568
REMARK  222  A    between atoms: _567  and  _570
REMARK  223  A    between atoms: _570  and  _571
REMARK  224  A    between atoms: _574  and  _576
REMARK  225  A    between atoms: _576  and  _577
REMARK  226  A    between atoms: _576  and  _579
REMARK  227  A    between atoms: _579  and  _580
REMARK  228  A    between atoms: _585  and  _586
REMARK  229  A    between atoms: _588  and  _590
REMARK  230  A    between atoms: _590  and  _591
REMARK  231  A    between atoms: _590  and  _593
REMARK  232  A    between atoms: _593  and  _594
REMARK  233  A    between atoms: _596  and  _598
REMARK  234  A    between atoms: _598  and  _599
REMARK  235  A    between atoms: _598  and  _601
REMARK  236  A    between atoms: _601  and  _602
REMARK  237  A    between atoms: _608  and  _610
REMARK  238  A    between atoms: _610  and  _611
REMARK  239  A    between atoms: _610  and  _613
REMARK  240  A    between atoms: _613  and  _614
REMARK  241  A    between atoms: _617  and  _619
REMARK  242  A    between atoms: _619  and  _620
REMARK  243  A    between atoms: _619  and  _622
REMARK  244  A    between atoms: _622  and  _623
REMARK  245  A    between atoms: _625  and  _627
REMARK  246  A    between atoms: _627  and  _628
REMARK  247  A    between atoms: _627  and  _630
REMARK  248  A    between atoms: _630  and  _631
REMARK  249  A    between atoms: _636  and  _638
REMARK  250  A    between atoms: _638  and  _639
REMARK  251  A    between atoms: _638  and  _641
REMARK  252  A    between atoms: _641  and  _642
REMARK  253  A    between atoms: _647  and  _649
REMARK  254  A    between atoms: _649  and  _650
REMARK  255  A    between atoms: _649  and  _652
REMARK  256  A    between atoms: _652  and  _653
REMARK  257  A    between atoms: _656  and  _658
REMARK  258  A    between atoms: _658  and  _659
REMARK  259  A    between atoms: _662  and  _664
REMARK  260  A    between atoms: _664  and  _665
REMARK  261  A    between atoms: _664  and  _667
REMARK  262  A    between atoms: _667  and  _668
REMARK  263  A    between atoms: _673  and  _674
REMARK  264  A    between atoms: _676  and  _678
REMARK  265  A    between atoms: _678  and  _679
REMARK  266  A    between atoms: _678  and  _681
REMARK  267  A    between atoms: _681  and  _682
REMARK  268  A    between atoms: _687  and  _688
REMARK  269  A    between atoms: _690  and  _692
REMARK  270  A    between atoms: _692  and  _693
REMARK  271  A    between atoms: _692  and  _695
REMARK  272  A    between atoms: _698  and  _700
REMARK  273  A    between atoms: _700  and  _701
REMARK  274  A    between atoms: _700  and  _703
REMARK  275  A    between atoms: _703  and  _704
REMARK  276  A    between atoms: _709  and  _711
REMARK  277  A    between atoms: _711  and  _712
REMARK  278  A    between atoms: _715  and  _717
REMARK  279  A    between atoms: _717  and  _718
REMARK  280  A    between atoms: _717  and  _720
REMARK  281  A    between atoms: _720  and  _721
REMARK  282  A    between atoms: _721  and  _722
REMARK  283  A    between atoms: _722  and  _723
REMARK  284  A    between atoms: _732  and  _734
REMARK  285  A    between atoms: _734  and  _735
REMARK  286  A    between atoms: _734  and  _737
REMARK  287  A    between atoms: _737  and  _738
REMARK  288  A    between atoms: _741  and  _743
REMARK  289  A    between atoms: _743  and  _744
REMARK  290  A    between atoms: _743  and  _746
REMARK  291  A    between atoms: _746  and  _747
REMARK  292  A    between atoms: _750  and  _752
REMARK  293  A    between atoms: _752  and  _753
REMARK  294  A    between atoms: _752  and  _755
REMARK  295  A    between atoms: _755  and  _756
REMARK  296  A    between atoms: _797  and  _800
REMARK                            x       y       z     vdW  Elec       q    Type
REMARK                         _______ _______ _______ _____ _____    ______ ____
ROOT
ATOM      1  O   HOH     1       8.079  15.831   6.776  0.00  0.00    +0.000 OA
ENDROOT
TORSDOF 0
REMARK  Name = ../refined-set-2016/1b1h/1b1h_pocket.pdb
REMARK  296 active torsions:
REMARK  status: ('A' for Active; 'I' for Inactive)
REMARK    1  A    between atoms: _1  and  _3
REMARK    2  A    between atoms: _3  and  _4
REMARK    3  A    between atoms: _3  and  _6
REMARK    4  A    between atoms: _6  and  _7
REMARK    5  A    between atoms: _12  and  _14
REMARK    6  A    between atoms: _14  and  _15
REMARK    7  A    between atoms: _17  and  _19
REMARK    8  A    between atoms: _19  and  _20
REMARK    9  A    between atoms: _19  and  _22
REMARK   10  A    between atoms: _22  and  _23
REMARK   11  A    between atoms: _25  and  _27
REMARK   12  A    between atoms: _27  and  _28
REMARK   13  A    between atoms: _27  and  _30
REMARK   14  A    between atoms: _30  and  _31
REMARK   15  A    between atoms: _31  and  _32
REMARK   16  A    between atoms: _37  and  _39
REMARK   17  A    between atoms: _39  and  _40
REMARK   18  A    between atoms: _39  and  _42
REMARK   19  A    between atoms: _42  and  _43
REMARK   20  A    between atoms: _46  and  _48
REMARK   21  A    between atoms: _48  and  _49
REMARK   22  A    between atoms: _48  and  _51
REMARK   23  A    between atoms: _51  and  _52
REMARK   24  A    between atoms: _52  and  _53
REMARK   25  A    between atoms: _56  and  _58
REMARK   26  A    between atoms: _58  and  _59
REMARK   27  A    between atoms: _61  and  _63
REMARK   28  A    between atoms: _63  and  _64
REMARK   29  A    between atoms: _63  and  _66
REMARK   30  A    between atoms: _70  and  _71
REMARK   31  A    between atoms: _76  and  _78
REMARK   32  A    between atoms: _78  and  _79
REMARK   33  A    between atoms: _78  and  _81
REMARK   34  A    between atoms: _81  and  _82
REMARK   35  A    between atoms: _82  and  _83
REMARK   36  A    between atoms: _86  and  _88
REMARK   37  A    between atoms: _88  and  _89
REMARK   38  A    between atoms: _88  and  _91
REMARK   39  A    between atoms: _91  and  _92
REMARK   40  A    between atoms: _94  and  _96
REMARK   41  A    between atoms: _96  and  _97
REMARK   42  A    between atoms: _96  and  _99
REMARK   43  A    between atoms: _99  and  _100
REMARK   44  A    between atoms: _105  and  _107
REMARK   45  A    between atoms: _107  and  _108
REMARK   46  A    between atoms: _107  and  _110
REMARK   47  A    between atoms: _110  and  _111
REMARK   48  A    between atoms: _111  and  _112
REMARK   49  A    between atoms: _112  and  _113
REMARK   50  A    between atoms: _123  and  _124
REMARK   51  A    between atoms: _129  and  _131
REMARK   52  A    between atoms: _131  and  _132
REMARK   53  A    between atoms: _131  and  _134
REMARK   54  A    between atoms: _134  and  _135
REMARK   55  A    between atoms: _140  and  _141
REMARK   56  A    between atoms: _143  and  _145
REMARK   57  A    between atoms: _145  and  _146
REMARK   58  A    between atoms: _145  and  _148
REMARK   59  A    between atoms: _148  and  _149
REMARK   60  A    between atoms: _154  and  _155
REMARK   61  A    between atoms: _157  and  _159
REMARK   62  A    between atoms: _159  and  _160
REMARK   63  A    between atoms: _159  and  _162
REMARK   64  A    between atoms: _165  and  _167
REMARK   65  A    between atoms: _167  and  _168
REMARK   66  A    between atoms: _167  and  _170
REMARK   67  A    between atoms: _170  and  _171
REMARK   68  A    between atoms: _177  and  _178
REMARK   69  A    between atoms: _183  and  _185
REMARK   70  A    between atoms: _185  and  _186
REMARK   71  A    between atoms: _185  and  _188
REMARK   72  A    between atoms: _188  and  _189
REMARK   73  A    between atoms: _191  and  _193
REMARK   74  A    between atoms: _193  and  _194
REMARK   75  A    between atoms: _193  and  _196
REMARK   76  A    between atoms: _196  and  _197
REMARK   77  A    between atoms: _197  and  _198
REMARK   78  A    between atoms: _201  and  _203
REMARK   79  A    between atoms: _203  and  _204
REMARK   80  A    between atoms: _203  and  _206
REMARK   81  A    between atoms: _206  and  _207
REMARK   82  A    between atoms: _212  and  _213
REMARK   83  A    between atoms: _215  and  _217
REMARK   84  A    between atoms: _217  and  _218
REMARK   85  A    between atoms: _217  and  _220
REMARK   86  A    between atoms: _220  and  _221
REMARK   87  A    between atoms: _226  and  _228
REMARK   88  A    between atoms: _228  and  _229
REMARK   89  A    between atoms: _228  and  _231
REMARK   90  A    between atoms: _231  and  _232
REMARK   91  A    between atoms: _237  and  _239
REMARK   92  A    between atoms: _239  and  _240
REMARK   93  A    between atoms: _239  and  _242
REMARK   94  A    between atoms: _242  and  _243
REMARK   95  A    between atoms: _243  and  _244
REMARK   96  A    between atoms: _246  and  _248
REMARK   97  A    between atoms: _248  and  _249
REMARK   98  A    between atoms: _248  and  _251
REMARK   99  A    between atoms: _251  and  _252
REMARK  100  A    between atoms: _257  and  _258
REMARK  101  A    between atoms: _260  and  _262
REMARK  102  A    between atoms: _262  and  _263
REMARK  103  A    between atoms: _262  and  _265
REMARK  104  A    between atoms: _265  and  _266
REMARK  105  A    between atoms: _269  and  _271
REMARK  106  A    between atoms: _271  and  _272
REMARK  107  A    between atoms: _271  and  _274
REMARK  108  A    between atoms: _274  and  _275
REMARK  109  A    between atoms: _275  and  _558
REMARK  110  A    between atoms: _276  and  _278
REMARK  111  A    between atoms: _278  and  _279
REMARK  112  A    between atoms: _278  and  _281
REMARK  113  A    between atoms: _281  and  _282
REMARK  114  A    between atoms: _285  and  _287
REMARK  115  A    between atoms: _287  and  _288
REMARK  116  A    between atoms: _287  and  _290
REMARK  117  A    between atoms: _290  and  _291
REMARK  118  A    between atoms: _296  and  _297
REMARK  119  A    between atoms: _299  and  _301
REMARK  120  A    between atoms: _301  and  _302
REMARK  121  A    between atoms: _301  and  _304
REMARK  122  A    between atoms: _304  and  _305
REMARK  123  A    between atoms: _310  and  _311
REMARK  124  A    between atoms: _313  and  _315
REMARK  125  A    between atoms: _315  and  _316
REMARK  126  A    between atoms: _315  and  _318
REMARK  127  A    between atoms: _318  and  _319
REMARK  128  A    between atoms: _319  and  _320
REMARK  129  A    between atoms: _323  and  _325
REMARK  130  A    between atoms: _325  and  _326
REMARK  131  A    between atoms: _325  and  _328
REMARK  132  A    between atoms: _328  and  _329
REMARK  133  A    between atoms: _334  and  _335
REMARK  134  A    between atoms: _337  and  _339
REMARK  135  A    between atoms: _339  and  _340
REMARK  136  A    between atoms: _339  and  _342
REMARK  137  A    between atoms: _342  and  _343
REMARK  138  A    between atoms: _348  and  _350
REMARK  139  A    between atoms: _350  and  _351
REMARK  140  A    between atoms: _350  and  _353
REMARK  141  A    between atoms: _353  and  _354
REMARK  142  A    between atoms: _357  and  _359
REMARK  143  A    between atoms: _359  and  _360
REMARK  144  A    between atoms: _359  and  _362
REMARK  145  A    between atoms: _362  and  _363
REMARK  146  A    between atoms: _368  and  _370
REMARK  147  A    between atoms: _370  and  _371
REMARK  148  A    between atoms: _370  and  _373
REMARK  149  A    between atoms: _373  and  _374
REMARK  150  A    between atoms: _384  and  _386
REMARK  151  A    between atoms: _386  and  _387
REMARK  152  A    between atoms: _386  and  _389
REMARK  153  A    between atoms: _389  and  _390
REMARK  154  A    between atoms: _390  and  _391
REMARK  155  A    between atoms: _391  and  _392
REMARK  156  A    between atoms: _392  and  _393
REMARK  157  A    between atoms: _397  and  _399
REMARK  158  A    between atoms: _399  and  _400
REMARK  159  A    between atoms: _399  and  _402
REMARK  160  A    between atoms: _402  and  _403
REMARK  161  A    between atoms: _406  and  _408
REMARK  162  A    between atoms: _408  and  _409
REMARK  163  A    between atoms: _408  and  _411
REMARK  164  A    between atoms: _411  and  _412
REMARK  165  A    between atoms: _418  and  _420
REMARK  166  A    between atoms: _420  and  _421
REMARK  167  A    between atoms: _420  and  _423
REMARK  168  A    between atoms: _423  and  _424
REMARK  169  A    between atoms: _427  and  _429
REMARK  170  A    between atoms: _429  and  _430
REMARK  171  A    between atoms: _429  and  _432
REMARK  172  A    between atoms: _432  and  _433
REMARK  173  A    between atoms: _436  and  _438
REMARK  174  A    between atoms: _438  and  _439
REMARK  175  A    between atoms: _438  and  _441
REMARK  176  A    between atoms: _441  and  _442
REMARK  177  A    between atoms: _445  and  _447
REMARK  178  A    between atoms: _447  and  _448
REMARK  179  A    between atoms: _447  and  _450
REMARK  180  A    between atoms: _450  and  _451
REMARK  181  A    between atoms: _451  and  _452
REMARK  182  A    between atoms: _452  and  _453
REMARK  183  A    between atoms: _462  and  _464
REMARK  184  A    between atoms: _464  and  _465
REMARK  185  A    between atoms: _464  and  _467
REMARK  186  A    between atoms: _467  and  _468
REMARK  187  A    between atoms: _473  and  _475
REMARK  188  A    between atoms: _475  and  _476
REMARK  189  A    between atoms: _475  and  _478
REMARK  190  A    between atoms: _478  and  _479
REMARK  191  A    between atoms: _479  and  _480
REMARK  192  A    between atoms: _485  and  _487
REMARK  193  A    between atoms: _487  and  _488
REMARK  194  A    between atoms: _490  and  _492
REMARK  195  A    between atoms: _492  and  _493
REMARK  196  A    between atoms: _492  and  _495
REMARK  197  A    between atoms: _495  and  _496
REMARK  198  A    between atoms: _502  and  _504
REMARK  199  A    between atoms: _504  and  _505
REMARK  200  A    between atoms: _508  and  _510
REMARK  201  A    between atoms: _510  and  _511
REMARK  202  A    between atoms: _510  and  _513
REMARK  203  A    between atoms: _513  and  _514
REMARK  204  A    between atoms: _514  and  _515
REMARK  205  A    between atoms: _515  and  _516
REMARK  206  A    between atoms: _525  and  _527
REMARK  207  A    between atoms: _527  and  _528
REMARK  208  A    between atoms: _531  and  _533
REMARK  209  A    between atoms: _533  and  _534
REMARK  210  A    between atoms: _536  and  _538
REMARK  211  A    between atoms: _538  and  _539
REMARK  212  A    between atoms: _538  and  _541
REMARK  213  A    between atoms: _541  and  _542
REMARK  214  A    between atoms: _552  and  _554
REMARK  215  A    between atoms: _554  and  _555
REMARK  216  A    between atoms: _554  and  _557
REMARK  217  A    between atoms: _557  and  _558
REMARK  218  A    between atoms: _559  and  _561
REMARK  219  A    between atoms: _561  and  _562
REMARK  220  A    between atoms: _565  and  _567
REMARK  221  A    between atoms: _567  and  _568
REMARK  222  A    between atoms: _567  and  _570
REMARK  223  A    between atoms: _570  and  _571
REMARK  224  A    between atoms: _574  and  _576
REMARK  225  A    between atoms: _576  and  _577
REMARK  226  A    between atoms: _576  and  _579
REMARK  227  A    between atoms: _579  and  _580
REMARK  228  A    between atoms: _585  and  _586
REMARK  229  A    between atoms: _588  and  _590
REMARK  230  A    between atoms: _590  and  _591
REMARK  231  A    between atoms: _590  and  _593
REMARK  232  A    between atoms: _593  and  _594
REMARK  233  A    between atoms: _596  and  _598
REMARK  234  A    between atoms: _598  and  _599
REMARK  235  A    between atoms: _598  and  _601
REMARK  236  A    between atoms: _601  and  _602
REMARK  237  A    between atoms: _608  and  _610
REMARK  238  A    between atoms: _610  and  _611
REMARK  239  A    between atoms: _610  and  _613
REMARK  240  A    between atoms: _613  and  _614
REMARK  241  A    between atoms: _617  and  _619
REMARK  242  A    between atoms: _619  and  _620
REMARK  243  A    between atoms: _619  and  _622
REMARK  244  A    between atoms: _622  and  _623
REMARK  245  A    between atoms: _625  and  _627
REMARK  246  A    between atoms: _627  and  _628
REMARK  247  A    between atoms: _627  and  _630
REMARK  248  A    between atoms: _630  and  _631
REMARK  249  A    between atoms: _636  and  _638
REMARK  250  A    between atoms: _638  and  _639
REMARK  251  A    between atoms: _638  and  _641
REMARK  252  A    between atoms: _641  and  _642
REMARK  253  A    between atoms: _647  and  _649
REMARK  254  A    between atoms: _649  and  _650
REMARK  255  A    between atoms: _649  and  _652
REMARK  256  A    between atoms: _652  and  _653
REMARK  257  A    between atoms: _656  and  _658
REMARK  258  A    between atoms: _658  and  _659
REMARK  259  A    between atoms: _662  and  _664
REMARK  260  A    between atoms: _664  and  _665
REMARK  261  A    between atoms: _664  and  _667
REMARK  262  A    between atoms: _667  and  _668
REMARK  263  A    between atoms: _673  and  _674
REMARK  264  A    between atoms: _676  and  _678
REMARK  265  A    between atoms: _678  and  _679
REMARK  266  A    between atoms: _678  and  _681
REMARK  267  A    between atoms: _681  and  _682
REMARK  268  A    between atoms: _687  and  _688
REMARK  269  A    between atoms: _690  and  _692
REMARK  270  A    between atoms: _692  and  _693
REMARK  271  A    between atoms: _692  and  _695
REMARK  272  A    between atoms: _698  and  _700
REMARK  273  A    between atoms: _700  and  _701
REMARK  274  A    between atoms: _700  and  _703
REMARK  275  A    between atoms: _703  and  _704
REMARK  276  A    between atoms: _709  and  _711
REMARK  277  A    between atoms: _711  and  _712
REMARK  278  A    between atoms: _715  and  _717
REMARK  279  A    between atoms: _717  and  _718
REMARK  280  A    between atoms: _717  and  _720
REMARK  281  A    between atoms: _720  and  _721
REMARK  282  A    between atoms: _721  and  _722
REMARK  283  A    between atoms: _722  and  _723
REMARK  284  A    between atoms: _732  and  _734
REMARK  285  A    between atoms: _734  and  _735
REMARK  286  A    between atoms: _734  and  _737
REMARK  287  A    between atoms: _737  and  _738
REMARK  288  A    between atoms: _741  and  _743
REMARK  289  A    between atoms: _743  and  _744
REMARK  290  A    between atoms: _743  and  _746
REMARK  291  A    between atoms: _746  and  _747
REMARK  292  A    between atoms: _750  and  _752
REMARK  293  A    between atoms: _752  and  _753
REMARK  294  A    between atoms: _752  and  _755
REMARK  295  A    between atoms: _755  and  _756
REMARK  296  A    between atoms: _797  and  _800
REMARK                            x       y       z     vdW  Elec       q    Type
REMARK                         _______ _______ _______ _____ _____    ______ ____
ROOT
ATOM      1  O   HOH     1      -7.114  24.104  12.189  0.00  0.00    +0.000 OA
ENDROOT
TORSDOF 0
REMARK  Name = ../refined-set-2016/1b1h/1b1h_pocket.pdb
REMARK  296 active torsions:
REMARK  status: ('A' for Active; 'I' for Inactive)
REMARK    1  A    between atoms: _1  and  _3
REMARK    2  A    between atoms: _3  and  _4
REMARK    3  A    between atoms: _3  and  _6
REMARK    4  A    between atoms: _6  and  _7
REMARK    5  A    between atoms: _12  and  _14
REMARK    6  A    between atoms: _14  and  _15
REMARK    7  A    between atoms: _17  and  _19
REMARK    8  A    between atoms: _19  and  _20
REMARK    9  A    between atoms: _19  and  _22
REMARK   10  A    between atoms: _22  and  _23
REMARK   11  A    between atoms: _25  and  _27
REMARK   12  A    between atoms: _27  and  _28
REMARK   13  A    between atoms: _27  and  _30
REMARK   14  A    between atoms: _30  and  _31
REMARK   15  A    between atoms: _31  and  _32
REMARK   16  A    between atoms: _37  and  _39
REMARK   17  A    between atoms: _39  and  _40
REMARK   18  A    between atoms: _39  and  _42
REMARK   19  A    between atoms: _42  and  _43
REMARK   20  A    between atoms: _46  and  _48
REMARK   21  A    between atoms: _48  and  _49
REMARK   22  A    between atoms: _48  and  _51
REMARK   23  A    between atoms: _51  and  _52
REMARK   24  A    between atoms: _52  and  _53
REMARK   25  A    between atoms: _56  and  _58
REMARK   26  A    between atoms: _58  and  _59
REMARK   27  A    between atoms: _61  and  _63
REMARK   28  A    between atoms: _63  and  _64
REMARK   29  A    between atoms: _63  and  _66
REMARK   30  A    between atoms: _70  and  _71
REMARK   31  A    between atoms: _76  and  _78
REMARK   32  A    between atoms: _78  and  _79
REMARK   33  A    between atoms: _78  and  _81
REMARK   34  A    between atoms: _81  and  _82
REMARK   35  A    between atoms: _82  and  _83
REMARK   36  A    between atoms: _86  and  _88
REMARK   37  A    between atoms: _88  and  _89
REMARK   38  A    between atoms: _88  and  _91
REMARK   39  A    between atoms: _91  and  _92
REMARK   40  A    between atoms: _94  and  _96
REMARK   41  A    between atoms: _96  and  _97
REMARK   42  A    between atoms: _96  and  _99
REMARK   43  A    between atoms: _99  and  _100
REMARK   44  A    between atoms: _105  and  _107
REMARK   45  A    between atoms: _107  and  _108
REMARK   46  A    between atoms: _107  and  _110
REMARK   47  A    between atoms: _110  and  _111
REMARK   48  A    between atoms: _111  and  _112
REMARK   49  A    between atoms: _112  and  _113
REMARK   50  A    between atoms: _123  and  _124
REMARK   51  A    between atoms: _129  and  _131
REMARK   52  A    between atoms: _131  and  _132
REMARK   53  A    between atoms: _131  and  _134
REMARK   54  A    between atoms: _134  and  _135
REMARK   55  A    between atoms: _140  and  _141
REMARK   56  A    between atoms: _143  and  _145
REMARK   57  A    between atoms: _145  and  _146
REMARK   58  A    between atoms: _145  and  _148
REMARK   59  A    between atoms: _148  and  _149
REMARK   60  A    between atoms: _154  and  _155
REMARK   61  A    between atoms: _157  and  _159
REMARK   62  A    between atoms: _159  and  _160
REMARK   63  A    between atoms: _159  and  _162
REMARK   64  A    between atoms: _165  and  _167
REMARK   65  A    between atoms: _167  and  _168
REMARK   66  A    between atoms: _167  and  _170
REMARK   67  A    between atoms: _170  and  _171
REMARK   68  A    between atoms: _177  and  _178
REMARK   69  A    between atoms: _183  and  _185
REMARK   70  A    between atoms: _185  and  _186
REMARK   71  A    between atoms: _185  and  _188
REMARK   72  A    between atoms: _188  and  _189
REMARK   73  A    between atoms: _191  and  _193
REMARK   74  A    between atoms: _193  and  _194
REMARK   75  A    between atoms: _193  and  _196
REMARK   76  A    between atoms: _196  and  _197
REMARK   77  A    between atoms: _197  and  _198
REMARK   78  A    between atoms: _201  and  _203
REMARK   79  A    between atoms: _203  and  _204
REMARK   80  A    between atoms: _203  and  _206
REMARK   81  A    between atoms: _206  and  _207
REMARK   82  A    between atoms: _212  and  _213
REMARK   83  A    between atoms: _215  and  _217
REMARK   84  A    between atoms: _217  and  _218
REMARK   85  A    between atoms: _217  and  _220
REMARK   86  A    between atoms: _220  and  _221
REMARK   87  A    between atoms: _226  and  _228
REMARK   88  A    between atoms: _228  and  _229
REMARK   89  A    between atoms: _228  and  _231
REMARK   90  A    between atoms: _231  and  _232
REMARK   91  A    between atoms: _237  and  _239
REMARK   92  A    between atoms: _239  and  _240
REMARK   93  A    between atoms: _239  and  _242
REMARK   94  A    between atoms: _242  and  _243
REMARK   95  A    between atoms: _243  and  _244
REMARK   96  A    between atoms: _246  and  _248
REMARK   97  A    between atoms: _248  and  _249
REMARK   98  A    between atoms: _248  and  _251
REMARK   99  A    between atoms: _251  and  _252
REMARK  100  A    between atoms: _257  and  _258
REMARK  101  A    between atoms: _260  and  _262
REMARK  102  A    between atoms: _262  and  _263
REMARK  103  A    between atoms: _262  and  _265
REMARK  104  A    between atoms: _265  and  _266
REMARK  105  A    between atoms: _269  and  _271
REMARK  106  A    between atoms: _271  and  _272
REMARK  107  A    between atoms: _271  and  _274
REMARK  108  A    between atoms: _274  and  _275
REMARK  109  A    between atoms: _275  and  _558
REMARK  110  A    between atoms: _276  and  _278
REMARK  111  A    between atoms: _278  and  _279
REMARK  112  A    between atoms: _278  and  _281
REMARK  113  A    between atoms: _281  and  _282
REMARK  114  A    between atoms: _285  and  _287
REMARK  115  A    between atoms: _287  and  _288
REMARK  116  A    between atoms: _287  and  _290
REMARK  117  A    between atoms: _290  and  _291
REMARK  118  A    between atoms: _296  and  _297
REMARK  119  A    between atoms: _299  and  _301
REMARK  120  A    between atoms: _301  and  _302
REMARK  121  A    between atoms: _301  and  _304
REMARK  122  A    between atoms: _304  and  _305
REMARK  123  A    between atoms: _310  and  _311
REMARK  124  A    between atoms: _313  and  _315
REMARK  125  A    between atoms: _315  and  _316
REMARK  126  A    between atoms: _315  and  _318
REMARK  127  A    between atoms: _318  and  _319
REMARK  128  A    between atoms: _319  and  _320
REMARK  129  A    between atoms: _323  and  _325
REMARK  130  A    between atoms: _325  and  _326
REMARK  131  A    between atoms: _325  and  _328
REMARK  132  A    between atoms: _328  and  _329
REMARK  133  A    between atoms: _334  and  _335
REMARK  134  A    between atoms: _337  and  _339
REMARK  135  A    between atoms: _339  and  _340
REMARK  136  A    between atoms: _339  and  _342
REMARK  137  A    between atoms: _342  and  _343
REMARK  138  A    between atoms: _348  and  _350
REMARK  139  A    between atoms: _350  and  _351
REMARK  140  A    between atoms: _350  and  _353
REMARK  141  A    between atoms: _353  and  _354
REMARK  142  A    between atoms: _357  and  _359
REMARK  143  A    between atoms: _359  and  _360
REMARK  144  A    between atoms: _359  and  _362
REMARK  145  A    between atoms: _362  and  _363
REMARK  146  A    between atoms: _368  and  _370
REMARK  147  A    between atoms: _370  and  _371
REMARK  148  A    between atoms: _370  and  _373
REMARK  149  A    between atoms: _373  and  _374
REMARK  150  A    between atoms: _384  and  _386
REMARK  151  A    between atoms: _386  and  _387
REMARK  152  A    between atoms: _386  and  _389
REMARK  153  A    between atoms: _389  and  _390
REMARK  154  A    between atoms: _390  and  _391
REMARK  155  A    between atoms: _391  and  _392
REMARK  156  A    between atoms: _392  and  _393
REMARK  157  A    between atoms: _397  and  _399
REMARK  158  A    between atoms: _399  and  _400
REMARK  159  A    between atoms: _399  and  _402
REMARK  160  A    between atoms: _402  and  _403
REMARK  161  A    between atoms: _406  and  _408
REMARK  162  A    between atoms: _408  and  _409
REMARK  163  A    between atoms: _408  and  _411
REMARK  164  A    between atoms: _411  and  _412
REMARK  165  A    between atoms: _418  and  _420
REMARK  166  A    between atoms: _420  and  _421
REMARK  167  A    between atoms: _420  and  _423
REMARK  168  A    between atoms: _423  and  _424
REMARK  169  A    between atoms: _427  and  _429
REMARK  170  A    between atoms: _429  and  _430
REMARK  171  A    between atoms: _429  and  _432
REMARK  172  A    between atoms: _432  and  _433
REMARK  173  A    between atoms: _436  and  _438
REMARK  174  A    between atoms: _438  and  _439
REMARK  175  A    between atoms: _438  and  _441
REMARK  176  A    between atoms: _441  and  _442
REMARK  177  A    between atoms: _445  and  _447
REMARK  178  A    between atoms: _447  and  _448
REMARK  179  A    between atoms: _447  and  _450
REMARK  180  A    between atoms: _450  and  _451
REMARK  181  A    between atoms: _451  and  _452
REMARK  182  A    between atoms: _452  and  _453
REMARK  183  A    between atoms: _462  and  _464
REMARK  184  A    between atoms: _464  and  _465
REMARK  185  A    between atoms: _464  and  _467
REMARK  186  A    between atoms: _467  and  _468
REMARK  187  A    between atoms: _473  and  _475
REMARK  188  A    between atoms: _475  and  _476
REMARK  189  A    between atoms: _475  and  _478
REMARK  190  A    between atoms: _478  and  _479
REMARK  191  A    between atoms: _479  and  _480
REMARK  192  A    between atoms: _485  and  _487
REMARK  193  A    between atoms: _487  and  _488
REMARK  194  A    between atoms: _490  and  _492
REMARK  195  A    between atoms: _492  and  _493
REMARK  196  A    between atoms: _492  and  _495
REMARK  197  A    between atoms: _495  and  _496
REMARK  198  A    between atoms: _502  and  _504
REMARK  199  A    between atoms: _504  and  _505
REMARK  200  A    between atoms: _508  and  _510
REMARK  201  A    between atoms: _510  and  _511
REMARK  202  A    between atoms: _510  and  _513
REMARK  203  A    between atoms: _513  and  _514
REMARK  204  A    between atoms: _514  and  _515
REMARK  205  A    between atoms: _515  and  _516
REMARK  206  A    between atoms: _525  and  _527
REMARK  207  A    between atoms: _527  and  _528
REMARK  208  A    between atoms: _531  and  _533
REMARK  209  A    between atoms: _533  and  _534
REMARK  210  A    between atoms: _536  and  _538
REMARK  211  A    between atoms: _538  and  _539
REMARK  212  A    between atoms: _538  and  _541
REMARK  213  A    between atoms: _541  and  _542
REMARK  214  A    between atoms: _552  and  _554
REMARK  215  A    between atoms: _554  and  _555
REMARK  216  A    between atoms: _554  and  _557
REMARK  217  A    between atoms: _557  and  _558
REMARK  218  A    between atoms: _559  and  _561
REMARK  219  A    between atoms: _561  and  _562
REMARK  220  A    between atoms: _565  and  _567
REMARK  221  A    between atoms: _567  and  _568
REMARK  222  A    between atoms: _567  and  _570
REMARK  223  A    between atoms: _570  and  _571
REMARK  224  A    between atoms: _574  and  _576
REMARK  225  A    between atoms: _576  and  _577
REMARK  226  A    between atoms: _576  and  _579
REMARK  227  A    between atoms: _579  and  _580
REMARK  228  A    between atoms: _585  and  _586
REMARK  229  A    between atoms: _588  and  _590
REMARK  230  A    between atoms: _590  and  _591
REMARK  231  A    between atoms: _590  and  _593
REMARK  232  A    between atoms: _593  and  _594
REMARK  233  A    between atoms: _596  and  _598
REMARK  234  A    between atoms: _598  and  _599
REMARK  235  A    between atoms: _598  and  _601
REMARK  236  A    between atoms: _601  and  _602
REMARK  237  A    between atoms: _608  and  _610
REMARK  238  A    between atoms: _610  and  _611
REMARK  239  A    between atoms: _610  and  _613
REMARK  240  A    between atoms: _613  and  _614
REMARK  241  A    between atoms: _617  and  _619
REMARK  242  A    between atoms: _619  and  _620
REMARK  243  A    between atoms: _619  and  _622
REMARK  244  A    between atoms: _622  and  _623
REMARK  245  A    between atoms: _625  and  _627
REMARK  246  A    between atoms: _627  and  _628
REMARK  247  A    between atoms: _627  and  _630
REMARK  248  A    between atoms: _630  and  _631
REMARK  249  A    between atoms: _636  and  _638
REMARK  250  A    between atoms: _638  and  _639
REMARK  251  A    between atoms: _638  and  _641
REMARK  252  A    between atoms: _641  and  _642
REMARK  253  A    between atoms: _647  and  _649
REMARK  254  A    between atoms: _649  and  _650
REMARK  255  A    between atoms: _649  and  _652
REMARK  256  A    between atoms: _652  and  _653
REMARK  257  A    between atoms: _656  and  _658
REMARK  258  A    between atoms: _658  and  _659
REMARK  259  A    between atoms: _662  and  _664
REMARK  260  A    between atoms: _664  and  _665
REMARK  261  A    between atoms: _664  and  _667
REMARK  262  A    between atoms: _667  and  _668
REMARK  263  A    between atoms: _673  and  _674
REMARK  264  A    between atoms: _676  and  _678
REMARK  265  A    between atoms: _678  and  _679
REMARK  266  A    between atoms: _678  and  _681
REMARK  267  A    between atoms: _681  and  _682
REMARK  268  A    between atoms: _687  and  _688
REMARK  269  A    between atoms: _690  and  _692
REMARK  270  A    between atoms: _692  and  _693
REMARK  271  A    between atoms: _692  and  _695
REMARK  272  A    between atoms: _698  and  _700
REMARK  273  A    between atoms: _700  and  _701
REMARK  274  A    between atoms: _700  and  _703
REMARK  275  A    between atoms: _703  and  _704
REMARK  276  A    between atoms: _709  and  _711
REMARK  277  A    between atoms: _711  and  _712
REMARK  278  A    between atoms: _715  and  _717
REMARK  279  A    between atoms: _717  and  _718
REMARK  280  A    between atoms: _717  and  _720
REMARK  281  A    between atoms: _720  and  _721
REMARK  282  A    between atoms: _721  and  _722
REMARK  283  A    between atoms: _722  and  _723
REMARK  284  A    between atoms: _732  and  _734
REMARK  285  A    between atoms: _734  and  _735
REMARK  286  A    between atoms: _734  and  _737
REMARK  287  A    between atoms: _737  and  _738
REMARK  288  A    between atoms: _741  and  _743
REMARK  289  A    between atoms: _743  and  _744
REMARK  290  A    between atoms: _743  and  _746
REMARK  291  A    between atoms: _746  and  _747
REMARK  292  A    between atoms: _750  and  _752
REMARK  293  A    between atoms: _752  and  _753
REMARK  294  A    between atoms: _752  and  _755
REMARK  295  A    between atoms: _755  and  _756
REMARK  296  A    between atoms: _797  and  _800
REMARK                            x       y       z     vdW  Elec       q    Type
REMARK                         _______ _______ _______ _____ _____    ______ ____
ROOT
ATOM      1  O   HOH     1      -8.049  13.814  16.446  0.00  0.00    +0.000 OA
ENDROOT
TORSDOF 0
REMARK  Name = ../refined-set-2016/1b1h/1b1h_pocket.pdb
REMARK  296 active torsions:
REMARK  status: ('A' for Active; 'I' for Inactive)
REMARK    1  A    between atoms: _1  and  _3
REMARK    2  A    between atoms: _3  and  _4
REMARK    3  A    between atoms: _3  and  _6
REMARK    4  A    between atoms: _6  and  _7
REMARK    5  A    between atoms: _12  and  _14
REMARK    6  A    between atoms: _14  and  _15
REMARK    7  A    between atoms: _17  and  _19
REMARK    8  A    between atoms: _19  and  _20
REMARK    9  A    between atoms: _19  and  _22
REMARK   10  A    between atoms: _22  and  _23
REMARK   11  A    between atoms: _25  and  _27
REMARK   12  A    between atoms: _27  and  _28
REMARK   13  A    between atoms: _27  and  _30
REMARK   14  A    between atoms: _30  and  _31
REMARK   15  A    between atoms: _31  and  _32
REMARK   16  A    between atoms: _37  and  _39
REMARK   17  A    between atoms: _39  and  _40
REMARK   18  A    between atoms: _39  and  _42
REMARK   19  A    between atoms: _42  and  _43
REMARK   20  A    between atoms: _46  and  _48
REMARK   21  A    between atoms: _48  and  _49
REMARK   22  A    between atoms: _48  and  _51
REMARK   23  A    between atoms: _51  and  _52
REMARK   24  A    between atoms: _52  and  _53
REMARK   25  A    between atoms: _56  and  _58
REMARK   26  A    between atoms: _58  and  _59
REMARK   27  A    between atoms: _61  and  _63
REMARK   28  A    between atoms: _63  and  _64
REMARK   29  A    between atoms: _63  and  _66
REMARK   30  A    between atoms: _70  and  _71
REMARK   31  A    between atoms: _76  and  _78
REMARK   32  A    between atoms: _78  and  _79
REMARK   33  A    between atoms: _78  and  _81
REMARK   34  A    between atoms: _81  and  _82
REMARK   35  A    between atoms: _82  and  _83
REMARK   36  A    between atoms: _86  and  _88
REMARK   37  A    between atoms: _88  and  _89
REMARK   38  A    between atoms: _88  and  _91
REMARK   39  A    between atoms: _91  and  _92
REMARK   40  A    between atoms: _94  and  _96
REMARK   41  A    between atoms: _96  and  _97
REMARK   42  A    between atoms: _96  and  _99
REMARK   43  A    between atoms: _99  and  _100
REMARK   44  A    between atoms: _105  and  _107
REMARK   45  A    between atoms: _107  and  _108
REMARK   46  A    between atoms: _107  and  _110
REMARK   47  A    between atoms: _110  and  _111
REMARK   48  A    between atoms: _111  and  _112
REMARK   49  A    between atoms: _112  and  _113
REMARK   50  A    between atoms: _123  and  _124
REMARK   51  A    between atoms: _129  and  _131
REMARK   52  A    between atoms: _131  and  _132
REMARK   53  A    between atoms: _131  and  _134
REMARK   54  A    between atoms: _134  and  _135
REMARK   55  A    between atoms: _140  and  _141
REMARK   56  A    between atoms: _143  and  _145
REMARK   57  A    between atoms: _145  and  _146
REMARK   58  A    between atoms: _145  and  _148
REMARK   59  A    between atoms: _148  and  _149
REMARK   60  A    between atoms: _154  and  _155
REMARK   61  A    between atoms: _157  and  _159
REMARK   62  A    between atoms: _159  and  _160
REMARK   63  A    between atoms: _159  and  _162
REMARK   64  A    between atoms: _165  and  _167
REMARK   65  A    between atoms: _167  and  _168
REMARK   66  A    between atoms: _167  and  _170
REMARK   67  A    between atoms: _170  and  _171
REMARK   68  A    between atoms: _177  and  _178
REMARK   69  A    between atoms: _183  and  _185
REMARK   70  A    between atoms: _185  and  _186
REMARK   71  A    between atoms: _185  and  _188
REMARK   72  A    between atoms: _188  and  _189
REMARK   73  A    between atoms: _191  and  _193
REMARK   74  A    between atoms: _193  and  _194
REMARK   75  A    between atoms: _193  and  _196
REMARK   76  A    between atoms: _196  and  _197
REMARK   77  A    between atoms: _197  and  _198
REMARK   78  A    between atoms: _201  and  _203
REMARK   79  A    between atoms: _203  and  _204
REMARK   80  A    between atoms: _203  and  _206
REMARK   81  A    between atoms: _206  and  _207
REMARK   82  A    between atoms: _212  and  _213
REMARK   83  A    between atoms: _215  and  _217
REMARK   84  A    between atoms: _217  and  _218
REMARK   85  A    between atoms: _217  and  _220
REMARK   86  A    between atoms: _220  and  _221
REMARK   87  A    between atoms: _226  and  _228
REMARK   88  A    between atoms: _228  and  _229
REMARK   89  A    between atoms: _228  and  _231
REMARK   90  A    between atoms: _231  and  _232
REMARK   91  A    between atoms: _237  and  _239
REMARK   92  A    between atoms: _239  and  _240
REMARK   93  A    between atoms: _239  and  _242
REMARK   94  A    between atoms: _242  and  _243
REMARK   95  A    between atoms: _243  and  _244
REMARK   96  A    between atoms: _246  and  _248
REMARK   97  A    between atoms: _248  and  _249
REMARK   98  A    between atoms: _248  and  _251
REMARK   99  A    between atoms: _251  and  _252
REMARK  100  A    between atoms: _257  and  _258
REMARK  101  A    between atoms: _260  and  _262
REMARK  102  A    between atoms: _262  and  _263
REMARK  103  A    between atoms: _262  and  _265
REMARK  104  A    between atoms: _265  and  _266
REMARK  105  A    between atoms: _269  and  _271
REMARK  106  A    between atoms: _271  and  _272
REMARK  107  A    between atoms: _271  and  _274
REMARK  108  A    between atoms: _274  and  _275
REMARK  109  A    between atoms: _275  and  _558
REMARK  110  A    between atoms: _276  and  _278
REMARK  111  A    between atoms: _278  and  _279
REMARK  112  A    between atoms: _278  and  _281
REMARK  113  A    between atoms: _281  and  _282
REMARK  114  A    between atoms: _285  and  _287
REMARK  115  A    between atoms: _287  and  _288
REMARK  116  A    between atoms: _287  and  _290
REMARK  117  A    between atoms: _290  and  _291
REMARK  118  A    between atoms: _296  and  _297
REMARK  119  A    between atoms: _299  and  _301
REMARK  120  A    between atoms: _301  and  _302
REMARK  121  A    between atoms: _301  and  _304
REMARK  122  A    between atoms: _304  and  _305
REMARK  123  A    between atoms: _310  and  _311
REMARK  124  A    between atoms: _313  and  _315
REMARK  125  A    between atoms: _315  and  _316
REMARK  126  A    between atoms: _315  and  _318
REMARK  127  A    between atoms: _318  and  _319
REMARK  128  A    between atoms: _319  and  _320
REMARK  129  A    between atoms: _323  and  _325
REMARK  130  A    between atoms: _325  and  _326
REMARK  131  A    between atoms: _325  and  _328
REMARK  132  A    between atoms: _328  and  _329
REMARK  133  A    between atoms: _334  and  _335
REMARK  134  A    between atoms: _337  and  _339
REMARK  135  A    between atoms: _339  and  _340
REMARK  136  A    between atoms: _339  and  _342
REMARK  137  A    between atoms: _342  and  _343
REMARK  138  A    between atoms: _348  and  _350
REMARK  139  A    between atoms: _350  and  _351
REMARK  140  A    between atoms: _350  and  _353
REMARK  141  A    between atoms: _353  and  _354
REMARK  142  A    between atoms: _357  and  _359
REMARK  143  A    between atoms: _359  and  _360
REMARK  144  A    between atoms: _359  and  _362
REMARK  145  A    between atoms: _362  and  _363
REMARK  146  A    between atoms: _368  and  _370
REMARK  147  A    between atoms: _370  and  _371
REMARK  148  A    between atoms: _370  and  _373
REMARK  149  A    between atoms: _373  and  _374
REMARK  150  A    between atoms: _384  and  _386
REMARK  151  A    between atoms: _386  and  _387
REMARK  152  A    between atoms: _386  and  _389
REMARK  153  A    between atoms: _389  and  _390
REMARK  154  A    between atoms: _390  and  _391
REMARK  155  A    between atoms: _391  and  _392
REMARK  156  A    between atoms: _392  and  _393
REMARK  157  A    between atoms: _397  and  _399
REMARK  158  A    between atoms: _399  and  _400
REMARK  159  A    between atoms: _399  and  _402
REMARK  160  A    between atoms: _402  and  _403
REMARK  161  A    between atoms: _406  and  _408
REMARK  162  A    between atoms: _408  and  _409
REMARK  163  A    between atoms: _408  and  _411
REMARK  164  A    between atoms: _411  and  _412
REMARK  165  A    between atoms: _418  and  _420
REMARK  166  A    between atoms: _420  and  _421
REMARK  167  A    between atoms: _420  and  _423
REMARK  168  A    between atoms: _423  and  _424
REMARK  169  A    between atoms: _427  and  _429
REMARK  170  A    between atoms: _429  and  _430
REMARK  171  A    between atoms: _429  and  _432
REMARK  172  A    between atoms: _432  and  _433
REMARK  173  A    between atoms: _436  and  _438
REMARK  174  A    between atoms: _438  and  _439
REMARK  175  A    between atoms: _438  and  _441
REMARK  176  A    between atoms: _441  and  _442
REMARK  177  A    between atoms: _445  and  _447
REMARK  178  A    between atoms: _447  and  _448
REMARK  179  A    between atoms: _447  and  _450
REMARK  180  A    between atoms: _450  and  _451
REMARK  181  A    between atoms: _451  and  _452
REMARK  182  A    between atoms: _452  and  _453
REMARK  183  A    between atoms: _462  and  _464
REMARK  184  A    between atoms: _464  and  _465
REMARK  185  A    between atoms: _464  and  _467
REMARK  186  A    between atoms: _467  and  _468
REMARK  187  A    between atoms: _473  and  _475
REMARK  188  A    between atoms: _475  and  _476
REMARK  189  A    between atoms: _475  and  _478
REMARK  190  A    between atoms: _478  and  _479
REMARK  191  A    between atoms: _479  and  _480
REMARK  192  A    between atoms: _485  and  _487
REMARK  193  A    between atoms: _487  and  _488
REMARK  194  A    between atoms: _490  and  _492
REMARK  195  A    between atoms: _492  and  _493
REMARK  196  A    between atoms: _492  and  _495
REMARK  197  A    between atoms: _495  and  _496
REMARK  198  A    between atoms: _502  and  _504
REMARK  199  A    between atoms: _504  and  _505
REMARK  200  A    between atoms: _508  and  _510
REMARK  201  A    between atoms: _510  and  _511
REMARK  202  A    between atoms: _510  and  _513
REMARK  203  A    between atoms: _513  and  _514
REMARK  204  A    between atoms: _514  and  _515
REMARK  205  A    between atoms: _515  and  _516
REMARK  206  A    between atoms: _525  and  _527
REMARK  207  A    between atoms: _527  and  _528
REMARK  208  A    between atoms: _531  and  _533
REMARK  209  A    between atoms: _533  and  _534
REMARK  210  A    between atoms: _536  and  _538
REMARK  211  A    between atoms: _538  and  _539
REMARK  212  A    between atoms: _538  and  _541
REMARK  213  A    between atoms: _541  and  _542
REMARK  214  A    between atoms: _552  and  _554
REMARK  215  A    between atoms: _554  and  _555
REMARK  216  A    between atoms: _554  and  _557
REMARK  217  A    between atoms: _557  and  _558
REMARK  218  A    between atoms: _559  and  _561
REMARK  219  A    between atoms: _561  and  _562
REMARK  220  A    between atoms: _565  and  _567
REMARK  221  A    between atoms: _567  and  _568
REMARK  222  A    between atoms: _567  and  _570
REMARK  223  A    between atoms: _570  and  _571
REMARK  224  A    between atoms: _574  and  _576
REMARK  225  A    between atoms: _576  and  _577
REMARK  226  A    between atoms: _576  and  _579
REMARK  227  A    between atoms: _579  and  _580
REMARK  228  A    between atoms: _585  and  _586
REMARK  229  A    between atoms: _588  and  _590
REMARK  230  A    between atoms: _590  and  _591
REMARK  231  A    between atoms: _590  and  _593
REMARK  232  A    between atoms: _593  and  _594
REMARK  233  A    between atoms: _596  and  _598
REMARK  234  A    between atoms: _598  and  _599
REMARK  235  A    between atoms: _598  and  _601
REMARK  236  A    between atoms: _601  and  _602
REMARK  237  A    between atoms: _608  and  _610
REMARK  238  A    between atoms: _610  and  _611
REMARK  239  A    between atoms: _610  and  _613
REMARK  240  A    between atoms: _613  and  _614
REMARK  241  A    between atoms: _617  and  _619
REMARK  242  A    between atoms: _619  and  _620
REMARK  243  A    between atoms: _619  and  _622
REMARK  244  A    between atoms: _622  and  _623
REMARK  245  A    between atoms: _625  and  _627
REMARK  246  A    between atoms: _627  and  _628
REMARK  247  A    between atoms: _627  and  _630
REMARK  248  A    between atoms: _630  and  _631
REMARK  249  A    between atoms: _636  and  _638
REMARK  250  A    between atoms: _638  and  _639
REMARK  251  A    between atoms: _638  and  _641
REMARK  252  A    between atoms: _641  and  _642
REMARK  253  A    between atoms: _647  and  _649
REMARK  254  A    between atoms: _649  and  _650
REMARK  255  A    between atoms: _649  and  _652
REMARK  256  A    between atoms: _652  and  _653
REMARK  257  A    between atoms: _656  and  _658
REMARK  258  A    between atoms: _658  and  _659
REMARK  259  A    between atoms: _662  and  _664
REMARK  260  A    between atoms: _664  and  _665
REMARK  261  A    between atoms: _664  and  _667
REMARK  262  A    between atoms: _667  and  _668
REMARK  263  A    between atoms: _673  and  _674
REMARK  264  A    between atoms: _676  and  _678
REMARK  265  A    between atoms: _678  and  _679
REMARK  266  A    between atoms: _678  and  _681
REMARK  267  A    between atoms: _681  and  _682
REMARK  268  A    between atoms: _687  and  _688
REMARK  269  A    between atoms: _690  and  _692
REMARK  270  A    between atoms: _692  and  _693
REMARK  271  A    between atoms: _692  and  _695
REMARK  272  A    between atoms: _698  and  _700
REMARK  273  A    between atoms: _700  and  _701
REMARK  274  A    between atoms: _700  and  _703
REMARK  275  A    between atoms: _703  and  _704
REMARK  276  A    between atoms: _709  and  _711
REMARK  277  A    between atoms: _711  and  _712
REMARK  278  A    between atoms: _715  and  _717
REMARK  279  A    between atoms: _717  and  _718
REMARK  280  A    between atoms: _717  and  _720
REMARK  281  A    between atoms: _720  and  _721
REMARK  282  A    between atoms: _721  and  _722
REMARK  283  A    between atoms: _722  and  _723
REMARK  284  A    between atoms: _732  and  _734
REMARK  285  A    between atoms: _734  and  _735
REMARK  286  A    between atoms: _734  and  _737
REMARK  287  A    between atoms: _737  and  _738
REMARK  288  A    between atoms: _741  and  _743
REMARK  289  A    between atoms: _743  and  _744
REMARK  290  A    between atoms: _743  and  _746
REMARK  291  A    between atoms: _746  and  _747
REMARK  292  A    between atoms: _750  and  _752
REMARK  293  A    between atoms: _752  and  _753
REMARK  294  A    between atoms: _752  and  _755
REMARK  295  A    between atoms: _755  and  _756
REMARK  296  A    between atoms: _797  and  _800
REMARK                            x       y       z     vdW  Elec       q    Type
REMARK                         _______ _______ _______ _____ _____    ______ ____
ROOT
ATOM      1  O   HOH     1       3.675  12.980  12.248  0.00  0.00    +0.000 OA
ENDROOT
TORSDOF 0
REMARK  Name = ../refined-set-2016/1b1h/1b1h_pocket.pdb
REMARK  296 active torsions:
REMARK  status: ('A' for Active; 'I' for Inactive)
REMARK    1  A    between atoms: _1  and  _3
REMARK    2  A    between atoms: _3  and  _4
REMARK    3  A    between atoms: _3  and  _6
REMARK    4  A    between atoms: _6  and  _7
REMARK    5  A    between atoms: _12  and  _14
REMARK    6  A    between atoms: _14  and  _15
REMARK    7  A    between atoms: _17  and  _19
REMARK    8  A    between atoms: _19  and  _20
REMARK    9  A    between atoms: _19  and  _22
REMARK   10  A    between atoms: _22  and  _23
REMARK   11  A    between atoms: _25  and  _27
REMARK   12  A    between atoms: _27  and  _28
REMARK   13  A    between atoms: _27  and  _30
REMARK   14  A    between atoms: _30  and  _31
REMARK   15  A    between atoms: _31  and  _32
REMARK   16  A    between atoms: _37  and  _39
REMARK   17  A    between atoms: _39  and  _40
REMARK   18  A    between atoms: _39  and  _42
REMARK   19  A    between atoms: _42  and  _43
REMARK   20  A    between atoms: _46  and  _48
REMARK   21  A    between atoms: _48  and  _49
REMARK   22  A    between atoms: _48  and  _51
REMARK   23  A    between atoms: _51  and  _52
REMARK   24  A    between atoms: _52  and  _53
REMARK   25  A    between atoms: _56  and  _58
REMARK   26  A    between atoms: _58  and  _59
REMARK   27  A    between atoms: _61  and  _63
REMARK   28  A    between atoms: _63  and  _64
REMARK   29  A    between atoms: _63  and  _66
REMARK   30  A    between atoms: _70  and  _71
REMARK   31  A    between atoms: _76  and  _78
REMARK   32  A    between atoms: _78  and  _79
REMARK   33  A    between atoms: _78  and  _81
REMARK   34  A    between atoms: _81  and  _82
REMARK   35  A    between atoms: _82  and  _83
REMARK   36  A    between atoms: _86  and  _88
REMARK   37  A    between atoms: _88  and  _89
REMARK   38  A    between atoms: _88  and  _91
REMARK   39  A    between atoms: _91  and  _92
REMARK   40  A    between atoms: _94  and  _96
REMARK   41  A    between atoms: _96  and  _97
REMARK   42  A    between atoms: _96  and  _99
REMARK   43  A    between atoms: _99  and  _100
REMARK   44  A    between atoms: _105  and  _107
REMARK   45  A    between atoms: _107  and  _108
REMARK   46  A    between atoms: _107  and  _110
REMARK   47  A    between atoms: _110  and  _111
REMARK   48  A    between atoms: _111  and  _112
REMARK   49  A    between atoms: _112  and  _113
REMARK   50  A    between atoms: _123  and  _124
REMARK   51  A    between atoms: _129  and  _131
REMARK   52  A    between atoms: _131  and  _132
REMARK   53  A    between atoms: _131  and  _134
REMARK   54  A    between atoms: _134  and  _135
REMARK   55  A    between atoms: _140  and  _141
REMARK   56  A    between atoms: _143  and  _145
REMARK   57  A    between atoms: _145  and  _146
REMARK   58  A    between atoms: _145  and  _148
REMARK   59  A    between atoms: _148  and  _149
REMARK   60  A    between atoms: _154  and  _155
REMARK   61  A    between atoms: _157  and  _159
REMARK   62  A    between atoms: _159  and  _160
REMARK   63  A    between atoms: _159  and  _162
REMARK   64  A    between atoms: _165  and  _167
REMARK   65  A    between atoms: _167  and  _168
REMARK   66  A    between atoms: _167  and  _170
REMARK   67  A    between atoms: _170  and  _171
REMARK   68  A    between atoms: _177  and  _178
REMARK   69  A    between atoms: _183  and  _185
REMARK   70  A    between atoms: _185  and  _186
REMARK   71  A    between atoms: _185  and  _188
REMARK   72  A    between atoms: _188  and  _189
REMARK   73  A    between atoms: _191  and  _193
REMARK   74  A    between atoms: _193  and  _194
REMARK   75  A    between atoms: _193  and  _196
REMARK   76  A    between atoms: _196  and  _197
REMARK   77  A    between atoms: _197  and  _198
REMARK   78  A    between atoms: _201  and  _203
REMARK   79  A    between atoms: _203  and  _204
REMARK   80  A    between atoms: _203  and  _206
REMARK   81  A    between atoms: _206  and  _207
REMARK   82  A    between atoms: _212  and  _213
REMARK   83  A    between atoms: _215  and  _217
REMARK   84  A    between atoms: _217  and  _218
REMARK   85  A    between atoms: _217  and  _220
REMARK   86  A    between atoms: _220  and  _221
REMARK   87  A    between atoms: _226  and  _228
REMARK   88  A    between atoms: _228  and  _229
REMARK   89  A    between atoms: _228  and  _231
REMARK   90  A    between atoms: _231  and  _232
REMARK   91  A    between atoms: _237  and  _239
REMARK   92  A    between atoms: _239  and  _240
REMARK   93  A    between atoms: _239  and  _242
REMARK   94  A    between atoms: _242  and  _243
REMARK   95  A    between atoms: _243  and  _244
REMARK   96  A    between atoms: _246  and  _248
REMARK   97  A    between atoms: _248  and  _249
REMARK   98  A    between atoms: _248  and  _251
REMARK   99  A    between atoms: _251  and  _252
REMARK  100  A    between atoms: _257  and  _258
REMARK  101  A    between atoms: _260  and  _262
REMARK  102  A    between atoms: _262  and  _263
REMARK  103  A    between atoms: _262  and  _265
REMARK  104  A    between atoms: _265  and  _266
REMARK  105  A    between atoms: _269  and  _271
REMARK  106  A    between atoms: _271  and  _272
REMARK  107  A    between atoms: _271  and  _274
REMARK  108  A    between atoms: _274  and  _275
REMARK  109  A    between atoms: _275  and  _558
REMARK  110  A    between atoms: _276  and  _278
REMARK  111  A    between atoms: _278  and  _279
REMARK  112  A    between atoms: _278  and  _281
REMARK  113  A    between atoms: _281  and  _282
REMARK  114  A    between atoms: _285  and  _287
REMARK  115  A    between atoms: _287  and  _288
REMARK  116  A    between atoms: _287  and  _290
REMARK  117  A    between atoms: _290  and  _291
REMARK  118  A    between atoms: _296  and  _297
REMARK  119  A    between atoms: _299  and  _301
REMARK  120  A    between atoms: _301  and  _302
REMARK  121  A    between atoms: _301  and  _304
REMARK  122  A    between atoms: _304  and  _305
REMARK  123  A    between atoms: _310  and  _311
REMARK  124  A    between atoms: _313  and  _315
REMARK  125  A    between atoms: _315  and  _316
REMARK  126  A    between atoms: _315  and  _318
REMARK  127  A    between atoms: _318  and  _319
REMARK  128  A    between atoms: _319  and  _320
REMARK  129  A    between atoms: _323  and  _325
REMARK  130  A    between atoms: _325  and  _326
REMARK  131  A    between atoms: _325  and  _328
REMARK  132  A    between atoms: _328  and  _329
REMARK  133  A    between atoms: _334  and  _335
REMARK  134  A    between atoms: _337  and  _339
REMARK  135  A    between atoms: _339  and  _340
REMARK  136  A    between atoms: _339  and  _342
REMARK  137  A    between atoms: _342  and  _343
REMARK  138  A    between atoms: _348  and  _350
REMARK  139  A    between atoms: _350  and  _351
REMARK  140  A    between atoms: _350  and  _353
REMARK  141  A    between atoms: _353  and  _354
REMARK  142  A    between atoms: _357  and  _359
REMARK  143  A    between atoms: _359  and  _360
REMARK  144  A    between atoms: _359  and  _362
REMARK  145  A    between atoms: _362  and  _363
REMARK  146  A    between atoms: _368  and  _370
REMARK  147  A    between atoms: _370  and  _371
REMARK  148  A    between atoms: _370  and  _373
REMARK  149  A    between atoms: _373  and  _374
REMARK  150  A    between atoms: _384  and  _386
REMARK  151  A    between atoms: _386  and  _387
REMARK  152  A    between atoms: _386  and  _389
REMARK  153  A    between atoms: _389  and  _390
REMARK  154  A    between atoms: _390  and  _391
REMARK  155  A    between atoms: _391  and  _392
REMARK  156  A    between atoms: _392  and  _393
REMARK  157  A    between atoms: _397  and  _399
REMARK  158  A    between atoms: _399  and  _400
REMARK  159  A    between atoms: _399  and  _402
REMARK  160  A    between atoms: _402  and  _403
REMARK  161  A    between atoms: _406  and  _408
REMARK  162  A    between atoms: _408  and  _409
REMARK  163  A    between atoms: _408  and  _411
REMARK  164  A    between atoms: _411  and  _412
REMARK  165  A    between atoms: _418  and  _420
REMARK  166  A    between atoms: _420  and  _421
REMARK  167  A    between atoms: _420  and  _423
REMARK  168  A    between atoms: _423  and  _424
REMARK  169  A    between atoms: _427  and  _429
REMARK  170  A    between atoms: _429  and  _430
REMARK  171  A    between atoms: _429  and  _432
REMARK  172  A    between atoms: _432  and  _433
REMARK  173  A    between atoms: _436  and  _438
REMARK  174  A    between atoms: _438  and  _439
REMARK  175  A    between atoms: _438  and  _441
REMARK  176  A    between atoms: _441  and  _442
REMARK  177  A    between atoms: _445  and  _447
REMARK  178  A    between atoms: _447  and  _448
REMARK  179  A    between atoms: _447  and  _450
REMARK  180  A    between atoms: _450  and  _451
REMARK  181  A    between atoms: _451  and  _452
REMARK  182  A    between atoms: _452  and  _453
REMARK  183  A    between atoms: _462  and  _464
REMARK  184  A    between atoms: _464  and  _465
REMARK  185  A    between atoms: _464  and  _467
REMARK  186  A    between atoms: _467  and  _468
REMARK  187  A    between atoms: _473  and  _475
REMARK  188  A    between atoms: _475  and  _476
REMARK  189  A    between atoms: _475  and  _478
REMARK  190  A    between atoms: _478  and  _479
REMARK  191  A    between atoms: _479  and  _480
REMARK  192  A    between atoms: _485  and  _487
REMARK  193  A    between atoms: _487  and  _488
REMARK  194  A    between atoms: _490  and  _492
REMARK  195  A    between atoms: _492  and  _493
REMARK  196  A    between atoms: _492  and  _495
REMARK  197  A    between atoms: _495  and  _496
REMARK  198  A    between atoms: _502  and  _504
REMARK  199  A    between atoms: _504  and  _505
REMARK  200  A    between atoms: _508  and  _510
REMARK  201  A    between atoms: _510  and  _511
REMARK  202  A    between atoms: _510  and  _513
REMARK  203  A    between atoms: _513  and  _514
REMARK  204  A    between atoms: _514  and  _515
REMARK  205  A    between atoms: _515  and  _516
REMARK  206  A    between atoms: _525  and  _527
REMARK  207  A    between atoms: _527  and  _528
REMARK  208  A    between atoms: _531  and  _533
REMARK  209  A    between atoms: _533  and  _534
REMARK  210  A    between atoms: _536  and  _538
REMARK  211  A    between atoms: _538  and  _539
REMARK  212  A    between atoms: _538  and  _541
REMARK  213  A    between atoms: _541  and  _542
REMARK  214  A    between atoms: _552  and  _554
REMARK  215  A    between atoms: _554  and  _555
REMARK  216  A    between atoms: _554  and  _557
REMARK  217  A    between atoms: _557  and  _558
REMARK  218  A    between atoms: _559  and  _561
REMARK  219  A    between atoms: _561  and  _562
REMARK  220  A    between atoms: _565  and  _567
REMARK  221  A    between atoms: _567  and  _568
REMARK  222  A    between atoms: _567  and  _570
REMARK  223  A    between atoms: _570  and  _571
REMARK  224  A    between atoms: _574  and  _576
REMARK  225  A    between atoms: _576  and  _577
REMARK  226  A    between atoms: _576  and  _579
REMARK  227  A    between atoms: _579  and  _580
REMARK  228  A    between atoms: _585  and  _586
REMARK  229  A    between atoms: _588  and  _590
REMARK  230  A    between atoms: _590  and  _591
REMARK  231  A    between atoms: _590  and  _593
REMARK  232  A    between atoms: _593  and  _594
REMARK  233  A    between atoms: _596  and  _598
REMARK  234  A    between atoms: _598  and  _599
REMARK  235  A    between atoms: _598  and  _601
REMARK  236  A    between atoms: _601  and  _602
REMARK  237  A    between atoms: _608  and  _610
REMARK  238  A    between atoms: _610  and  _611
REMARK  239  A    between atoms: _610  and  _613
REMARK  240  A    between atoms: _613  and  _614
REMARK  241  A    between atoms: _617  and  _619
REMARK  242  A    between atoms: _619  and  _620
REMARK  243  A    between atoms: _619  and  _622
REMARK  244  A    between atoms: _622  and  _623
REMARK  245  A    between atoms: _625  and  _627
REMARK  246  A    between atoms: _627  and  _628
REMARK  247  A    between atoms: _627  and  _630
REMARK  248  A    between atoms: _630  and  _631
REMARK  249  A    between atoms: _636  and  _638
REMARK  250  A    between atoms: _638  and  _639
REMARK  251  A    between atoms: _638  and  _641
REMARK  252  A    between atoms: _641  and  _642
REMARK  253  A    between atoms: _647  and  _649
REMARK  254  A    between atoms: _649  and  _650
REMARK  255  A    between atoms: _649  and  _652
REMARK  256  A    between atoms: _652  and  _653
REMARK  257  A    between atoms: _656  and  _658
REMARK  258  A    between atoms: _658  and  _659
REMARK  259  A    between atoms: _662  and  _664
REMARK  260  A    between atoms: _664  and  _665
REMARK  261  A    between atoms: _664  and  _667
REMARK  262  A    between atoms: _667  and  _668
REMARK  263  A    between atoms: _673  and  _674
REMARK  264  A    between atoms: _676  and  _678
REMARK  265  A    between atoms: _678  and  _679
REMARK  266  A    between atoms: _678  and  _681
REMARK  267  A    between atoms: _681  and  _682
REMARK  268  A    between atoms: _687  and  _688
REMARK  269  A    between atoms: _690  and  _692
REMARK  270  A    between atoms: _692  and  _693
REMARK  271  A    between atoms: _692  and  _695
REMARK  272  A    between atoms: _698  and  _700
REMARK  273  A    between atoms: _700  and  _701
REMARK  274  A    between atoms: _700  and  _703
REMARK  275  A    between atoms: _703  and  _704
REMARK  276  A    between atoms: _709  and  _711
REMARK  277  A    between atoms: _711  and  _712
REMARK  278  A    between atoms: _715  and  _717
REMARK  279  A    between atoms: _717  and  _718
REMARK  280  A    between atoms: _717  and  _720
REMARK  281  A    between atoms: _720  and  _721
REMARK  282  A    between atoms: _721  and  _722
REMARK  283  A    between atoms: _722  and  _723
REMARK  284  A    between atoms: _732  and  _734
REMARK  285  A    between atoms: _734  and  _735
REMARK  286  A    between atoms: _734  and  _737
REMARK  287  A    between atoms: _737  and  _738
REMARK  288  A    between atoms: _741  and  _743
REMARK  289  A    between atoms: _743  and  _744
REMARK  290  A    between atoms: _743  and  _746
REMARK  291  A    between atoms: _746  and  _747
REMARK  292  A    between atoms: _750  and  _752
REMARK  293  A    between atoms: _752  and  _753
REMARK  294  A    between atoms: _752  and  _755
REMARK  295  A    between atoms: _755  and  _756
REMARK  296  A    between atoms: _797  and  _800
REMARK                            x       y       z     vdW  Elec       q    Type
REMARK                         _______ _______ _______ _____ _____    ______ ____
ROOT
ATOM      1  O   HOH     1      -8.183  14.943  12.771  0.00  0.00    +0.000 OA
ENDROOT
TORSDOF 0
REMARK  Name = ../refined-set-2016/1b1h/1b1h_pocket.pdb
REMARK  296 active torsions:
REMARK  status: ('A' for Active; 'I' for Inactive)
REMARK    1  A    between atoms: _1  and  _3
REMARK    2  A    between atoms: _3  and  _4
REMARK    3  A    between atoms: _3  and  _6
REMARK    4  A    between atoms: _6  and  _7
REMARK    5  A    between atoms: _12  and  _14
REMARK    6  A    between atoms: _14  and  _15
REMARK    7  A    between atoms: _17  and  _19
REMARK    8  A    between atoms: _19  and  _20
REMARK    9  A    between atoms: _19  and  _22
REMARK   10  A    between atoms: _22  and  _23
REMARK   11  A    between atoms: _25  and  _27
REMARK   12  A    between atoms: _27  and  _28
REMARK   13  A    between atoms: _27  and  _30
REMARK   14  A    between atoms: _30  and  _31
REMARK   15  A    between atoms: _31  and  _32
REMARK   16  A    between atoms: _37  and  _39
REMARK   17  A    between atoms: _39  and  _40
REMARK   18  A    between atoms: _39  and  _42
REMARK   19  A    between atoms: _42  and  _43
REMARK   20  A    between atoms: _46  and  _48
REMARK   21  A    between atoms: _48  and  _49
REMARK   22  A    between atoms: _48  and  _51
REMARK   23  A    between atoms: _51  and  _52
REMARK   24  A    between atoms: _52  and  _53
REMARK   25  A    between atoms: _56  and  _58
REMARK   26  A    between atoms: _58  and  _59
REMARK   27  A    between atoms: _61  and  _63
REMARK   28  A    between atoms: _63  and  _64
REMARK   29  A    between atoms: _63  and  _66
REMARK   30  A    between atoms: _70  and  _71
REMARK   31  A    between atoms: _76  and  _78
REMARK   32  A    between atoms: _78  and  _79
REMARK   33  A    between atoms: _78  and  _81
REMARK   34  A    between atoms: _81  and  _82
REMARK   35  A    between atoms: _82  and  _83
REMARK   36  A    between atoms: _86  and  _88
REMARK   37  A    between atoms: _88  and  _89
REMARK   38  A    between atoms: _88  and  _91
REMARK   39  A    between atoms: _91  and  _92
REMARK   40  A    between atoms: _94  and  _96
REMARK   41  A    between atoms: _96  and  _97
REMARK   42  A    between atoms: _96  and  _99
REMARK   43  A    between atoms: _99  and  _100
REMARK   44  A    between atoms: _105  and  _107
REMARK   45  A    between atoms: _107  and  _108
REMARK   46  A    between atoms: _107  and  _110
REMARK   47  A    between atoms: _110  and  _111
REMARK   48  A    between atoms: _111  and  _112
REMARK   49  A    between atoms: _112  and  _113
REMARK   50  A    between atoms: _123  and  _124
REMARK   51  A    between atoms: _129  and  _131
REMARK   52  A    between atoms: _131  and  _132
REMARK   53  A    between atoms: _131  and  _134
REMARK   54  A    between atoms: _134  and  _135
REMARK   55  A    between atoms: _140  and  _141
REMARK   56  A    between atoms: _143  and  _145
REMARK   57  A    between atoms: _145  and  _146
REMARK   58  A    between atoms: _145  and  _148
REMARK   59  A    between atoms: _148  and  _149
REMARK   60  A    between atoms: _154  and  _155
REMARK   61  A    between atoms: _157  and  _159
REMARK   62  A    between atoms: _159  and  _160
REMARK   63  A    between atoms: _159  and  _162
REMARK   64  A    between atoms: _165  and  _167
REMARK   65  A    between atoms: _167  and  _168
REMARK   66  A    between atoms: _167  and  _170
REMARK   67  A    between atoms: _170  and  _171
REMARK   68  A    between atoms: _177  and  _178
REMARK   69  A    between atoms: _183  and  _185
REMARK   70  A    between atoms: _185  and  _186
REMARK   71  A    between atoms: _185  and  _188
REMARK   72  A    between atoms: _188  and  _189
REMARK   73  A    between atoms: _191  and  _193
REMARK   74  A    between atoms: _193  and  _194
REMARK   75  A    between atoms: _193  and  _196
REMARK   76  A    between atoms: _196  and  _197
REMARK   77  A    between atoms: _197  and  _198
REMARK   78  A    between atoms: _201  and  _203
REMARK   79  A    between atoms: _203  and  _204
REMARK   80  A    between atoms: _203  and  _206
REMARK   81  A    between atoms: _206  and  _207
REMARK   82  A    between atoms: _212  and  _213
REMARK   83  A    between atoms: _215  and  _217
REMARK   84  A    between atoms: _217  and  _218
REMARK   85  A    between atoms: _217  and  _220
REMARK   86  A    between atoms: _220  and  _221
REMARK   87  A    between atoms: _226  and  _228
REMARK   88  A    between atoms: _228  and  _229
REMARK   89  A    between atoms: _228  and  _231
REMARK   90  A    between atoms: _231  and  _232
REMARK   91  A    between atoms: _237  and  _239
REMARK   92  A    between atoms: _239  and  _240
REMARK   93  A    between atoms: _239  and  _242
REMARK   94  A    between atoms: _242  and  _243
REMARK   95  A    between atoms: _243  and  _244
REMARK   96  A    between atoms: _246  and  _248
REMARK   97  A    between atoms: _248  and  _249
REMARK   98  A    between atoms: _248  and  _251
REMARK   99  A    between atoms: _251  and  _252
REMARK  100  A    between atoms: _257  and  _258
REMARK  101  A    between atoms: _260  and  _262
REMARK  102  A    between atoms: _262  and  _263
REMARK  103  A    between atoms: _262  and  _265
REMARK  104  A    between atoms: _265  and  _266
REMARK  105  A    between atoms: _269  and  _271
REMARK  106  A    between atoms: _271  and  _272
REMARK  107  A    between atoms: _271  and  _274
REMARK  108  A    between atoms: _274  and  _275
REMARK  109  A    between atoms: _275  and  _558
REMARK  110  A    between atoms: _276  and  _278
REMARK  111  A    between atoms: _278  and  _279
REMARK  112  A    between atoms: _278  and  _281
REMARK  113  A    between atoms: _281  and  _282
REMARK  114  A    between atoms: _285  and  _287
REMARK  115  A    between atoms: _287  and  _288
REMARK  116  A    between atoms: _287  and  _290
REMARK  117  A    between atoms: _290  and  _291
REMARK  118  A    between atoms: _296  and  _297
REMARK  119  A    between atoms: _299  and  _301
REMARK  120  A    between atoms: _301  and  _302
REMARK  121  A    between atoms: _301  and  _304
REMARK  122  A    between atoms: _304  and  _305
REMARK  123  A    between atoms: _310  and  _311
REMARK  124  A    between atoms: _313  and  _315
REMARK  125  A    between atoms: _315  and  _316
REMARK  126  A    between atoms: _315  and  _318
REMARK  127  A    between atoms: _318  and  _319
REMARK  128  A    between atoms: _319  and  _320
REMARK  129  A    between atoms: _323  and  _325
REMARK  130  A    between atoms: _325  and  _326
REMARK  131  A    between atoms: _325  and  _328
REMARK  132  A    between atoms: _328  and  _329
REMARK  133  A    between atoms: _334  and  _335
REMARK  134  A    between atoms: _337  and  _339
REMARK  135  A    between atoms: _339  and  _340
REMARK  136  A    between atoms: _339  and  _342
REMARK  137  A    between atoms: _342  and  _343
REMARK  138  A    between atoms: _348  and  _350
REMARK  139  A    between atoms: _350  and  _351
REMARK  140  A    between atoms: _350  and  _353
REMARK  141  A    between atoms: _353  and  _354
REMARK  142  A    between atoms: _357  and  _359
REMARK  143  A    between atoms: _359  and  _360
REMARK  144  A    between atoms: _359  and  _362
REMARK  145  A    between atoms: _362  and  _363
REMARK  146  A    between atoms: _368  and  _370
REMARK  147  A    between atoms: _370  and  _371
REMARK  148  A    between atoms: _370  and  _373
REMARK  149  A    between atoms: _373  and  _374
REMARK  150  A    between atoms: _384  and  _386
REMARK  151  A    between atoms: _386  and  _387
REMARK  152  A    between atoms: _386  and  _389
REMARK  153  A    between atoms: _389  and  _390
REMARK  154  A    between atoms: _390  and  _391
REMARK  155  A    between atoms: _391  and  _392
REMARK  156  A    between atoms: _392  and  _393
REMARK  157  A    between atoms: _397  and  _399
REMARK  158  A    between atoms: _399  and  _400
REMARK  159  A    between atoms: _399  and  _402
REMARK  160  A    between atoms: _402  and  _403
REMARK  161  A    between atoms: _406  and  _408
REMARK  162  A    between atoms: _408  and  _409
REMARK  163  A    between atoms: _408  and  _411
REMARK  164  A    between atoms: _411  and  _412
REMARK  165  A    between atoms: _418  and  _420
REMARK  166  A    between atoms: _420  and  _421
REMARK  167  A    between atoms: _420  and  _423
REMARK  168  A    between atoms: _423  and  _424
REMARK  169  A    between atoms: _427  and  _429
REMARK  170  A    between atoms: _429  and  _430
REMARK  171  A    between atoms: _429  and  _432
REMARK  172  A    between atoms: _432  and  _433
REMARK  173  A    between atoms: _436  and  _438
REMARK  174  A    between atoms: _438  and  _439
REMARK  175  A    between atoms: _438  and  _441
REMARK  176  A    between atoms: _441  and  _442
REMARK  177  A    between atoms: _445  and  _447
REMARK  178  A    between atoms: _447  and  _448
REMARK  179  A    between atoms: _447  and  _450
REMARK  180  A    between atoms: _450  and  _451
REMARK  181  A    between atoms: _451  and  _452
REMARK  182  A    between atoms: _452  and  _453
REMARK  183  A    between atoms: _462  and  _464
REMARK  184  A    between atoms: _464  and  _465
REMARK  185  A    between atoms: _464  and  _467
REMARK  186  A    between atoms: _467  and  _468
REMARK  187  A    between atoms: _473  and  _475
REMARK  188  A    between atoms: _475  and  _476
REMARK  189  A    between atoms: _475  and  _478
REMARK  190  A    between atoms: _478  and  _479
REMARK  191  A    between atoms: _479  and  _480
REMARK  192  A    between atoms: _485  and  _487
REMARK  193  A    between atoms: _487  and  _488
REMARK  194  A    between atoms: _490  and  _492
REMARK  195  A    between atoms: _492  and  _493
REMARK  196  A    between atoms: _492  and  _495
REMARK  197  A    between atoms: _495  and  _496
REMARK  198  A    between atoms: _502  and  _504
REMARK  199  A    between atoms: _504  and  _505
REMARK  200  A    between atoms: _508  and  _510
REMARK  201  A    between atoms: _510  and  _511
REMARK  202  A    between atoms: _510  and  _513
REMARK  203  A    between atoms: _513  and  _514
REMARK  204  A    between atoms: _514  and  _515
REMARK  205  A    between atoms: _515  and  _516
REMARK  206  A    between atoms: _525  and  _527
REMARK  207  A    between atoms: _527  and  _528
REMARK  208  A    between atoms: _531  and  _533
REMARK  209  A    between atoms: _533  and  _534
REMARK  210  A    between atoms: _536  and  _538
REMARK  211  A    between atoms: _538  and  _539
REMARK  212  A    between atoms: _538  and  _541
REMARK  213  A    between atoms: _541  and  _542
REMARK  214  A    between atoms: _552  and  _554
REMARK  215  A    between atoms: _554  and  _555
REMARK  216  A    between atoms: _554  and  _557
REMARK  217  A    between atoms: _557  and  _558
REMARK  218  A    between atoms: _559  and  _561
REMARK  219  A    between atoms: _561  and  _562
REMARK  220  A    between atoms: _565  and  _567
REMARK  221  A    between atoms: _567  and  _568
REMARK  222  A    between atoms: _567  and  _570
REMARK  223  A    between atoms: _570  and  _571
REMARK  224  A    between atoms: _574  and  _576
REMARK  225  A    between atoms: _576  and  _577
REMARK  226  A    between atoms: _576  and  _579
REMARK  227  A    between atoms: _579  and  _580
REMARK  228  A    between atoms: _585  and  _586
REMARK  229  A    between atoms: _588  and  _590
REMARK  230  A    between atoms: _590  and  _591
REMARK  231  A    between atoms: _590  and  _593
REMARK  232  A    between atoms: _593  and  _594
REMARK  233  A    between atoms: _596  and  _598
REMARK  234  A    between atoms: _598  and  _599
REMARK  235  A    between atoms: _598  and  _601
REMARK  236  A    between atoms: _601  and  _602
REMARK  237  A    between atoms: _608  and  _610
REMARK  238  A    between atoms: _610  and  _611
REMARK  239  A    between atoms: _610  and  _613
REMARK  240  A    between atoms: _613  and  _614
REMARK  241  A    between atoms: _617  and  _619
REMARK  242  A    between atoms: _619  and  _620
REMARK  243  A    between atoms: _619  and  _622
REMARK  244  A    between atoms: _622  and  _623
REMARK  245  A    between atoms: _625  and  _627
REMARK  246  A    between atoms: _627  and  _628
REMARK  247  A    between atoms: _627  and  _630
REMARK  248  A    between atoms: _630  and  _631
REMARK  249  A    between atoms: _636  and  _638
REMARK  250  A    between atoms: _638  and  _639
REMARK  251  A    between atoms: _638  and  _641
REMARK  252  A    between atoms: _641  and  _642
REMARK  253  A    between atoms: _647  and  _649
REMARK  254  A    between atoms: _649  and  _650
REMARK  255  A    between atoms: _649  and  _652
REMARK  256  A    between atoms: _652  and  _653
REMARK  257  A    between atoms: _656  and  _658
REMARK  258  A    between atoms: _658  and  _659
REMARK  259  A    between atoms: _662  and  _664
REMARK  260  A    between atoms: _664  and  _665
REMARK  261  A    between atoms: _664  and  _667
REMARK  262  A    between atoms: _667  and  _668
REMARK  263  A    between atoms: _673  and  _674
REMARK  264  A    between atoms: _676  and  _678
REMARK  265  A    between atoms: _678  and  _679
REMARK  266  A    between atoms: _678  and  _681
REMARK  267  A    between atoms: _681  and  _682
REMARK  268  A    between atoms: _687  and  _688
REMARK  269  A    between atoms: _690  and  _692
REMARK  270  A    between atoms: _692  and  _693
REMARK  271  A    between atoms: _692  and  _695
REMARK  272  A    between atoms: _698  and  _700
REMARK  273  A    between atoms: _700  and  _701
REMARK  274  A    between atoms: _700  and  _703
REMARK  275  A    between atoms: _703  and  _704
REMARK  276  A    between atoms: _709  and  _711
REMARK  277  A    between atoms: _711  and  _712
REMARK  278  A    between atoms: _715  and  _717
REMARK  279  A    between atoms: _717  and  _718
REMARK  280  A    between atoms: _717  and  _720
REMARK  281  A    between atoms: _720  and  _721
REMARK  282  A    between atoms: _721  and  _722
REMARK  283  A    between atoms: _722  and  _723
REMARK  284  A    between atoms: _732  and  _734
REMARK  285  A    between atoms: _734  and  _735
REMARK  286  A    between atoms: _734  and  _737
REMARK  287  A    between atoms: _737  and  _738
REMARK  288  A    between atoms: _741  and  _743
REMARK  289  A    between atoms: _743  and  _744
REMARK  290  A    between atoms: _743  and  _746
REMARK  291  A    between atoms: _746  and  _747
REMARK  292  A    between atoms: _750  and  _752
REMARK  293  A    between atoms: _752  and  _753
REMARK  294  A    between atoms: _752  and  _755
REMARK  295  A    between atoms: _755  and  _756
REMARK  296  A    between atoms: _797  and  _800
REMARK                            x       y       z     vdW  Elec       q    Type
REMARK                         _______ _______ _______ _____ _____    ______ ____
ROOT
ATOM      1  O   HOH     1      -9.905  16.404  14.430  0.00  0.00    +0.000 OA
ENDROOT
TORSDOF 0
REMARK  Name = ../refined-set-2016/1b1h/1b1h_pocket.pdb
REMARK  296 active torsions:
REMARK  status: ('A' for Active; 'I' for Inactive)
REMARK    1  A    between atoms: _1  and  _3
REMARK    2  A    between atoms: _3  and  _4
REMARK    3  A    between atoms: _3  and  _6
REMARK    4  A    between atoms: _6  and  _7
REMARK    5  A    between atoms: _12  and  _14
REMARK    6  A    between atoms: _14  and  _15
REMARK    7  A    between atoms: _17  and  _19
REMARK    8  A    between atoms: _19  and  _20
REMARK    9  A    between atoms: _19  and  _22
REMARK   10  A    between atoms: _22  and  _23
REMARK   11  A    between atoms: _25  and  _27
REMARK   12  A    between atoms: _27  and  _28
REMARK   13  A    between atoms: _27  and  _30
REMARK   14  A    between atoms: _30  and  _31
REMARK   15  A    between atoms: _31  and  _32
REMARK   16  A    between atoms: _37  and  _39
REMARK   17  A    between atoms: _39  and  _40
REMARK   18  A    between atoms: _39  and  _42
REMARK   19  A    between atoms: _42  and  _43
REMARK   20  A    between atoms: _46  and  _48
REMARK   21  A    between atoms: _48  and  _49
REMARK   22  A    between atoms: _48  and  _51
REMARK   23  A    between atoms: _51  and  _52
REMARK   24  A    between atoms: _52  and  _53
REMARK   25  A    between atoms: _56  and  _58
REMARK   26  A    between atoms: _58  and  _59
REMARK   27  A    between atoms: _61  and  _63
REMARK   28  A    between atoms: _63  and  _64
REMARK   29  A    between atoms: _63  and  _66
REMARK   30  A    between atoms: _70  and  _71
REMARK   31  A    between atoms: _76  and  _78
REMARK   32  A    between atoms: _78  and  _79
REMARK   33  A    between atoms: _78  and  _81
REMARK   34  A    between atoms: _81  and  _82
REMARK   35  A    between atoms: _82  and  _83
REMARK   36  A    between atoms: _86  and  _88
REMARK   37  A    between atoms: _88  and  _89
REMARK   38  A    between atoms: _88  and  _91
REMARK   39  A    between atoms: _91  and  _92
REMARK   40  A    between atoms: _94  and  _96
REMARK   41  A    between atoms: _96  and  _97
REMARK   42  A    between atoms: _96  and  _99
REMARK   43  A    between atoms: _99  and  _100
REMARK   44  A    between atoms: _105  and  _107
REMARK   45  A    between atoms: _107  and  _108
REMARK   46  A    between atoms: _107  and  _110
REMARK   47  A    between atoms: _110  and  _111
REMARK   48  A    between atoms: _111  and  _112
REMARK   49  A    between atoms: _112  and  _113
REMARK   50  A    between atoms: _123  and  _124
REMARK   51  A    between atoms: _129  and  _131
REMARK   52  A    between atoms: _131  and  _132
REMARK   53  A    between atoms: _131  and  _134
REMARK   54  A    between atoms: _134  and  _135
REMARK   55  A    between atoms: _140  and  _141
REMARK   56  A    between atoms: _143  and  _145
REMARK   57  A    between atoms: _145  and  _146
REMARK   58  A    between atoms: _145  and  _148
REMARK   59  A    between atoms: _148  and  _149
REMARK   60  A    between atoms: _154  and  _155
REMARK   61  A    between atoms: _157  and  _159
REMARK   62  A    between atoms: _159  and  _160
REMARK   63  A    between atoms: _159  and  _162
REMARK   64  A    between atoms: _165  and  _167
REMARK   65  A    between atoms: _167  and  _168
REMARK   66  A    between atoms: _167  and  _170
REMARK   67  A    between atoms: _170  and  _171
REMARK   68  A    between atoms: _177  and  _178
REMARK   69  A    between atoms: _183  and  _185
REMARK   70  A    between atoms: _185  and  _186
REMARK   71  A    between atoms: _185  and  _188
REMARK   72  A    between atoms: _188  and  _189
REMARK   73  A    between atoms: _191  and  _193
REMARK   74  A    between atoms: _193  and  _194
REMARK   75  A    between atoms: _193  and  _196
REMARK   76  A    between atoms: _196  and  _197
REMARK   77  A    between atoms: _197  and  _198
REMARK   78  A    between atoms: _201  and  _203
REMARK   79  A    between atoms: _203  and  _204
REMARK   80  A    between atoms: _203  and  _206
REMARK   81  A    between atoms: _206  and  _207
REMARK   82  A    between atoms: _212  and  _213
REMARK   83  A    between atoms: _215  and  _217
REMARK   84  A    between atoms: _217  and  _218
REMARK   85  A    between atoms: _217  and  _220
REMARK   86  A    between atoms: _220  and  _221
REMARK   87  A    between atoms: _226  and  _228
REMARK   88  A    between atoms: _228  and  _229
REMARK   89  A    between atoms: _228  and  _231
REMARK   90  A    between atoms: _231  and  _232
REMARK   91  A    between atoms: _237  and  _239
REMARK   92  A    between atoms: _239  and  _240
REMARK   93  A    between atoms: _239  and  _242
REMARK   94  A    between atoms: _242  and  _243
REMARK   95  A    between atoms: _243  and  _244
REMARK   96  A    between atoms: _246  and  _248
REMARK   97  A    between atoms: _248  and  _249
REMARK   98  A    between atoms: _248  and  _251
REMARK   99  A    between atoms: _251  and  _252
REMARK  100  A    between atoms: _257  and  _258
REMARK  101  A    between atoms: _260  and  _262
REMARK  102  A    between atoms: _262  and  _263
REMARK  103  A    between atoms: _262  and  _265
REMARK  104  A    between atoms: _265  and  _266
REMARK  105  A    between atoms: _269  and  _271
REMARK  106  A    between atoms: _271  and  _272
REMARK  107  A    between atoms: _271  and  _274
REMARK  108  A    between atoms: _274  and  _275
REMARK  109  A    between atoms: _275  and  _558
REMARK  110  A    between atoms: _276  and  _278
REMARK  111  A    between atoms: _278  and  _279
REMARK  112  A    between atoms: _278  and  _281
REMARK  113  A    between atoms: _281  and  _282
REMARK  114  A    between atoms: _285  and  _287
REMARK  115  A    between atoms: _287  and  _288
REMARK  116  A    between atoms: _287  and  _290
REMARK  117  A    between atoms: _290  and  _291
REMARK  118  A    between atoms: _296  and  _297
REMARK  119  A    between atoms: _299  and  _301
REMARK  120  A    between atoms: _301  and  _302
REMARK  121  A    between atoms: _301  and  _304
REMARK  122  A    between atoms: _304  and  _305
REMARK  123  A    between atoms: _310  and  _311
REMARK  124  A    between atoms: _313  and  _315
REMARK  125  A    between atoms: _315  and  _316
REMARK  126  A    between atoms: _315  and  _318
REMARK  127  A    between atoms: _318  and  _319
REMARK  128  A    between atoms: _319  and  _320
REMARK  129  A    between atoms: _323  and  _325
REMARK  130  A    between atoms: _325  and  _326
REMARK  131  A    between atoms: _325  and  _328
REMARK  132  A    between atoms: _328  and  _329
REMARK  133  A    between atoms: _334  and  _335
REMARK  134  A    between atoms: _337  and  _339
REMARK  135  A    between atoms: _339  and  _340
REMARK  136  A    between atoms: _339  and  _342
REMARK  137  A    between atoms: _342  and  _343
REMARK  138  A    between atoms: _348  and  _350
REMARK  139  A    between atoms: _350  and  _351
REMARK  140  A    between atoms: _350  and  _353
REMARK  141  A    between atoms: _353  and  _354
REMARK  142  A    between atoms: _357  and  _359
REMARK  143  A    between atoms: _359  and  _360
REMARK  144  A    between atoms: _359  and  _362
REMARK  145  A    between atoms: _362  and  _363
REMARK  146  A    between atoms: _368  and  _370
REMARK  147  A    between atoms: _370  and  _371
REMARK  148  A    between atoms: _370  and  _373
REMARK  149  A    between atoms: _373  and  _374
REMARK  150  A    between atoms: _384  and  _386
REMARK  151  A    between atoms: _386  and  _387
REMARK  152  A    between atoms: _386  and  _389
REMARK  153  A    between atoms: _389  and  _390
REMARK  154  A    between atoms: _390  and  _391
REMARK  155  A    between atoms: _391  and  _392
REMARK  156  A    between atoms: _392  and  _393
REMARK  157  A    between atoms: _397  and  _399
REMARK  158  A    between atoms: _399  and  _400
REMARK  159  A    between atoms: _399  and  _402
REMARK  160  A    between atoms: _402  and  _403
REMARK  161  A    between atoms: _406  and  _408
REMARK  162  A    between atoms: _408  and  _409
REMARK  163  A    between atoms: _408  and  _411
REMARK  164  A    between atoms: _411  and  _412
REMARK  165  A    between atoms: _418  and  _420
REMARK  166  A    between atoms: _420  and  _421
REMARK  167  A    between atoms: _420  and  _423
REMARK  168  A    between atoms: _423  and  _424
REMARK  169  A    between atoms: _427  and  _429
REMARK  170  A    between atoms: _429  and  _430
REMARK  171  A    between atoms: _429  and  _432
REMARK  172  A    between atoms: _432  and  _433
REMARK  173  A    between atoms: _436  and  _438
REMARK  174  A    between atoms: _438  and  _439
REMARK  175  A    between atoms: _438  and  _441
REMARK  176  A    between atoms: _441  and  _442
REMARK  177  A    between atoms: _445  and  _447
REMARK  178  A    between atoms: _447  and  _448
REMARK  179  A    between atoms: _447  and  _450
REMARK  180  A    between atoms: _450  and  _451
REMARK  181  A    between atoms: _451  and  _452
REMARK  182  A    between atoms: _452  and  _453
REMARK  183  A    between atoms: _462  and  _464
REMARK  184  A    between atoms: _464  and  _465
REMARK  185  A    between atoms: _464  and  _467
REMARK  186  A    between atoms: _467  and  _468
REMARK  187  A    between atoms: _473  and  _475
REMARK  188  A    between atoms: _475  and  _476
REMARK  189  A    between atoms: _475  and  _478
REMARK  190  A    between atoms: _478  and  _479
REMARK  191  A    between atoms: _479  and  _480
REMARK  192  A    between atoms: _485  and  _487
REMARK  193  A    between atoms: _487  and  _488
REMARK  194  A    between atoms: _490  and  _492
REMARK  195  A    between atoms: _492  and  _493
REMARK  196  A    between atoms: _492  and  _495
REMARK  197  A    between atoms: _495  and  _496
REMARK  198  A    between atoms: _502  and  _504
REMARK  199  A    between atoms: _504  and  _505
REMARK  200  A    between atoms: _508  and  _510
REMARK  201  A    between atoms: _510  and  _511
REMARK  202  A    between atoms: _510  and  _513
REMARK  203  A    between atoms: _513  and  _514
REMARK  204  A    between atoms: _514  and  _515
REMARK  205  A    between atoms: _515  and  _516
REMARK  206  A    between atoms: _525  and  _527
REMARK  207  A    between atoms: _527  and  _528
REMARK  208  A    between atoms: _531  and  _533
REMARK  209  A    between atoms: _533  and  _534
REMARK  210  A    between atoms: _536  and  _538
REMARK  211  A    between atoms: _538  and  _539
REMARK  212  A    between atoms: _538  and  _541
REMARK  213  A    between atoms: _541  and  _542
REMARK  214  A    between atoms: _552  and  _554
REMARK  215  A    between atoms: _554  and  _555
REMARK  216  A    between atoms: _554  and  _557
REMARK  217  A    between atoms: _557  and  _558
REMARK  218  A    between atoms: _559  and  _561
REMARK  219  A    between atoms: _561  and  _562
REMARK  220  A    between atoms: _565  and  _567
REMARK  221  A    between atoms: _567  and  _568
REMARK  222  A    between atoms: _567  and  _570
REMARK  223  A    between atoms: _570  and  _571
REMARK  224  A    between atoms: _574  and  _576
REMARK  225  A    between atoms: _576  and  _577
REMARK  226  A    between atoms: _576  and  _579
REMARK  227  A    between atoms: _579  and  _580
REMARK  228  A    between atoms: _585  and  _586
REMARK  229  A    between atoms: _588  and  _590
REMARK  230  A    between atoms: _590  and  _591
REMARK  231  A    between atoms: _590  and  _593
REMARK  232  A    between atoms: _593  and  _594
REMARK  233  A    between atoms: _596  and  _598
REMARK  234  A    between atoms: _598  and  _599
REMARK  235  A    between atoms: _598  and  _601
REMARK  236  A    between atoms: _601  and  _602
REMARK  237  A    between atoms: _608  and  _610
REMARK  238  A    between atoms: _610  and  _611
REMARK  239  A    between atoms: _610  and  _613
REMARK  240  A    between atoms: _613  and  _614
REMARK  241  A    between atoms: _617  and  _619
REMARK  242  A    between atoms: _619  and  _620
REMARK  243  A    between atoms: _619  and  _622
REMARK  244  A    between atoms: _622  and  _623
REMARK  245  A    between atoms: _625  and  _627
REMARK  246  A    between atoms: _627  and  _628
REMARK  247  A    between atoms: _627  and  _630
REMARK  248  A    between atoms: _630  and  _631
REMARK  249  A    between atoms: _636  and  _638
REMARK  250  A    between atoms: _638  and  _639
REMARK  251  A    between atoms: _638  and  _641
REMARK  252  A    between atoms: _641  and  _642
REMARK  253  A    between atoms: _647  and  _649
REMARK  254  A    between atoms: _649  and  _650
REMARK  255  A    between atoms: _649  and  _652
REMARK  256  A    between atoms: _652  and  _653
REMARK  257  A    between atoms: _656  and  _658
REMARK  258  A    between atoms: _658  and  _659
REMARK  259  A    between atoms: _662  and  _664
REMARK  260  A    between atoms: _664  and  _665
REMARK  261  A    between atoms: _664  and  _667
REMARK  262  A    between atoms: _667  and  _668
REMARK  263  A    between atoms: _673  and  _674
REMARK  264  A    between atoms: _676  and  _678
REMARK  265  A    between atoms: _678  and  _679
REMARK  266  A    between atoms: _678  and  _681
REMARK  267  A    between atoms: _681  and  _682
REMARK  268  A    between atoms: _687  and  _688
REMARK  269  A    between atoms: _690  and  _692
REMARK  270  A    between atoms: _692  and  _693
REMARK  271  A    between atoms: _692  and  _695
REMARK  272  A    between atoms: _698  and  _700
REMARK  273  A    between atoms: _700  and  _701
REMARK  274  A    between atoms: _700  and  _703
REMARK  275  A    between atoms: _703  and  _704
REMARK  276  A    between atoms: _709  and  _711
REMARK  277  A    between atoms: _711  and  _712
REMARK  278  A    between atoms: _715  and  _717
REMARK  279  A    between atoms: _717  and  _718
REMARK  280  A    between atoms: _717  and  _720
REMARK  281  A    between atoms: _720  and  _721
REMARK  282  A    between atoms: _721  and  _722
REMARK  283  A    between atoms: _722  and  _723
REMARK  284  A    between atoms: _732  and  _734
REMARK  285  A    between atoms: _734  and  _735
REMARK  286  A    between atoms: _734  and  _737
REMARK  287  A    between atoms: _737  and  _738
REMARK  288  A    between atoms: _741  and  _743
REMARK  289  A    between atoms: _743  and  _744
REMARK  290  A    between atoms: _743  and  _746
REMARK  291  A    between atoms: _746  and  _747
REMARK  292  A    between atoms: _750  and  _752
REMARK  293  A    between atoms: _752  and  _753
REMARK  294  A    between atoms: _752  and  _755
REMARK  295  A    between atoms: _755  and  _756
REMARK  296  A    between atoms: _797  and  _800
REMARK                            x       y       z     vdW  Elec       q    Type
REMARK                         _______ _______ _______ _____ _____    ______ ____
ROOT
ATOM      1  O   HOH     1       4.575  14.045   9.358  0.00  0.00    +0.000 OA
ENDROOT
TORSDOF 0
REMARK  Name = ../refined-set-2016/1b1h/1b1h_pocket.pdb
REMARK  296 active torsions:
REMARK  status: ('A' for Active; 'I' for Inactive)
REMARK    1  A    between atoms: _1  and  _3
REMARK    2  A    between atoms: _3  and  _4
REMARK    3  A    between atoms: _3  and  _6
REMARK    4  A    between atoms: _6  and  _7
REMARK    5  A    between atoms: _12  and  _14
REMARK    6  A    between atoms: _14  and  _15
REMARK    7  A    between atoms: _17  and  _19
REMARK    8  A    between atoms: _19  and  _20
REMARK    9  A    between atoms: _19  and  _22
REMARK   10  A    between atoms: _22  and  _23
REMARK   11  A    between atoms: _25  and  _27
REMARK   12  A    between atoms: _27  and  _28
REMARK   13  A    between atoms: _27  and  _30
REMARK   14  A    between atoms: _30  and  _31
REMARK   15  A    between atoms: _31  and  _32
REMARK   16  A    between atoms: _37  and  _39
REMARK   17  A    between atoms: _39  and  _40
REMARK   18  A    between atoms: _39  and  _42
REMARK   19  A    between atoms: _42  and  _43
REMARK   20  A    between atoms: _46  and  _48
REMARK   21  A    between atoms: _48  and  _49
REMARK   22  A    between atoms: _48  and  _51
REMARK   23  A    between atoms: _51  and  _52
REMARK   24  A    between atoms: _52  and  _53
REMARK   25  A    between atoms: _56  and  _58
REMARK   26  A    between atoms: _58  and  _59
REMARK   27  A    between atoms: _61  and  _63
REMARK   28  A    between atoms: _63  and  _64
REMARK   29  A    between atoms: _63  and  _66
REMARK   30  A    between atoms: _70  and  _71
REMARK   31  A    between atoms: _76  and  _78
REMARK   32  A    between atoms: _78  and  _79
REMARK   33  A    between atoms: _78  and  _81
REMARK   34  A    between atoms: _81  and  _82
REMARK   35  A    between atoms: _82  and  _83
REMARK   36  A    between atoms: _86  and  _88
REMARK   37  A    between atoms: _88  and  _89
REMARK   38  A    between atoms: _88  and  _91
REMARK   39  A    between atoms: _91  and  _92
REMARK   40  A    between atoms: _94  and  _96
REMARK   41  A    between atoms: _96  and  _97
REMARK   42  A    between atoms: _96  and  _99
REMARK   43  A    between atoms: _99  and  _100
REMARK   44  A    between atoms: _105  and  _107
REMARK   45  A    between atoms: _107  and  _108
REMARK   46  A    between atoms: _107  and  _110
REMARK   47  A    between atoms: _110  and  _111
REMARK   48  A    between atoms: _111  and  _112
REMARK   49  A    between atoms: _112  and  _113
REMARK   50  A    between atoms: _123  and  _124
REMARK   51  A    between atoms: _129  and  _131
REMARK   52  A    between atoms: _131  and  _132
REMARK   53  A    between atoms: _131  and  _134
REMARK   54  A    between atoms: _134  and  _135
REMARK   55  A    between atoms: _140  and  _141
REMARK   56  A    between atoms: _143  and  _145
REMARK   57  A    between atoms: _145  and  _146
REMARK   58  A    between atoms: _145  and  _148
REMARK   59  A    between atoms: _148  and  _149
REMARK   60  A    between atoms: _154  and  _155
REMARK   61  A    between atoms: _157  and  _159
REMARK   62  A    between atoms: _159  and  _160
REMARK   63  A    between atoms: _159  and  _162
REMARK   64  A    between atoms: _165  and  _167
REMARK   65  A    between atoms: _167  and  _168
REMARK   66  A    between atoms: _167  and  _170
REMARK   67  A    between atoms: _170  and  _171
REMARK   68  A    between atoms: _177  and  _178
REMARK   69  A    between atoms: _183  and  _185
REMARK   70  A    between atoms: _185  and  _186
REMARK   71  A    between atoms: _185  and  _188
REMARK   72  A    between atoms: _188  and  _189
REMARK   73  A    between atoms: _191  and  _193
REMARK   74  A    between atoms: _193  and  _194
REMARK   75  A    between atoms: _193  and  _196
REMARK   76  A    between atoms: _196  and  _197
REMARK   77  A    between atoms: _197  and  _198
REMARK   78  A    between atoms: _201  and  _203
REMARK   79  A    between atoms: _203  and  _204
REMARK   80  A    between atoms: _203  and  _206
REMARK   81  A    between atoms: _206  and  _207
REMARK   82  A    between atoms: _212  and  _213
REMARK   83  A    between atoms: _215  and  _217
REMARK   84  A    between atoms: _217  and  _218
REMARK   85  A    between atoms: _217  and  _220
REMARK   86  A    between atoms: _220  and  _221
REMARK   87  A    between atoms: _226  and  _228
REMARK   88  A    between atoms: _228  and  _229
REMARK   89  A    between atoms: _228  and  _231
REMARK   90  A    between atoms: _231  and  _232
REMARK   91  A    between atoms: _237  and  _239
REMARK   92  A    between atoms: _239  and  _240
REMARK   93  A    between atoms: _239  and  _242
REMARK   94  A    between atoms: _242  and  _243
REMARK   95  A    between atoms: _243  and  _244
REMARK   96  A    between atoms: _246  and  _248
REMARK   97  A    between atoms: _248  and  _249
REMARK   98  A    between atoms: _248  and  _251
REMARK   99  A    between atoms: _251  and  _252
REMARK  100  A    between atoms: _257  and  _258
REMARK  101  A    between atoms: _260  and  _262
REMARK  102  A    between atoms: _262  and  _263
REMARK  103  A    between atoms: _262  and  _265
REMARK  104  A    between atoms: _265  and  _266
REMARK  105  A    between atoms: _269  and  _271
REMARK  106  A    between atoms: _271  and  _272
REMARK  107  A    between atoms: _271  and  _274
REMARK  108  A    between atoms: _274  and  _275
REMARK  109  A    between atoms: _275  and  _558
REMARK  110  A    between atoms: _276  and  _278
REMARK  111  A    between atoms: _278  and  _279
REMARK  112  A    between atoms: _278  and  _281
REMARK  113  A    between atoms: _281  and  _282
REMARK  114  A    between atoms: _285  and  _287
REMARK  115  A    between atoms: _287  and  _288
REMARK  116  A    between atoms: _287  and  _290
REMARK  117  A    between atoms: _290  and  _291
REMARK  118  A    between atoms: _296  and  _297
REMARK  119  A    between atoms: _299  and  _301
REMARK  120  A    between atoms: _301  and  _302
REMARK  121  A    between atoms: _301  and  _304
REMARK  122  A    between atoms: _304  and  _305
REMARK  123  A    between atoms: _310  and  _311
REMARK  124  A    between atoms: _313  and  _315
REMARK  125  A    between atoms: _315  and  _316
REMARK  126  A    between atoms: _315  and  _318
REMARK  127  A    between atoms: _318  and  _319
REMARK  128  A    between atoms: _319  and  _320
REMARK  129  A    between atoms: _323  and  _325
REMARK  130  A    between atoms: _325  and  _326
REMARK  131  A    between atoms: _325  and  _328
REMARK  132  A    between atoms: _328  and  _329
REMARK  133  A    between atoms: _334  and  _335
REMARK  134  A    between atoms: _337  and  _339
REMARK  135  A    between atoms: _339  and  _340
REMARK  136  A    between atoms: _339  and  _342
REMARK  137  A    between atoms: _342  and  _343
REMARK  138  A    between atoms: _348  and  _350
REMARK  139  A    between atoms: _350  and  _351
REMARK  140  A    between atoms: _350  and  _353
REMARK  141  A    between atoms: _353  and  _354
REMARK  142  A    between atoms: _357  and  _359
REMARK  143  A    between atoms: _359  and  _360
REMARK  144  A    between atoms: _359  and  _362
REMARK  145  A    between atoms: _362  and  _363
REMARK  146  A    between atoms: _368  and  _370
REMARK  147  A    between atoms: _370  and  _371
REMARK  148  A    between atoms: _370  and  _373
REMARK  149  A    between atoms: _373  and  _374
REMARK  150  A    between atoms: _384  and  _386
REMARK  151  A    between atoms: _386  and  _387
REMARK  152  A    between atoms: _386  and  _389
REMARK  153  A    between atoms: _389  and  _390
REMARK  154  A    between atoms: _390  and  _391
REMARK  155  A    between atoms: _391  and  _392
REMARK  156  A    between atoms: _392  and  _393
REMARK  157  A    between atoms: _397  and  _399
REMARK  158  A    between atoms: _399  and  _400
REMARK  159  A    between atoms: _399  and  _402
REMARK  160  A    between atoms: _402  and  _403
REMARK  161  A    between atoms: _406  and  _408
REMARK  162  A    between atoms: _408  and  _409
REMARK  163  A    between atoms: _408  and  _411
REMARK  164  A    between atoms: _411  and  _412
REMARK  165  A    between atoms: _418  and  _420
REMARK  166  A    between atoms: _420  and  _421
REMARK  167  A    between atoms: _420  and  _423
REMARK  168  A    between atoms: _423  and  _424
REMARK  169  A    between atoms: _427  and  _429
REMARK  170  A    between atoms: _429  and  _430
REMARK  171  A    between atoms: _429  and  _432
REMARK  172  A    between atoms: _432  and  _433
REMARK  173  A    between atoms: _436  and  _438
REMARK  174  A    between atoms: _438  and  _439
REMARK  175  A    between atoms: _438  and  _441
REMARK  176  A    between atoms: _441  and  _442
REMARK  177  A    between atoms: _445  and  _447
REMARK  178  A    between atoms: _447  and  _448
REMARK  179  A    between atoms: _447  and  _450
REMARK  180  A    between atoms: _450  and  _451
REMARK  181  A    between atoms: _451  and  _452
REMARK  182  A    between atoms: _452  and  _453
REMARK  183  A    between atoms: _462  and  _464
REMARK  184  A    between atoms: _464  and  _465
REMARK  185  A    between atoms: _464  and  _467
REMARK  186  A    between atoms: _467  and  _468
REMARK  187  A    between atoms: _473  and  _475
REMARK  188  A    between atoms: _475  and  _476
REMARK  189  A    between atoms: _475  and  _478
REMARK  190  A    between atoms: _478  and  _479
REMARK  191  A    between atoms: _479  and  _480
REMARK  192  A    between atoms: _485  and  _487
REMARK  193  A    between atoms: _487  and  _488
REMARK  194  A    between atoms: _490  and  _492
REMARK  195  A    between atoms: _492  and  _493
REMARK  196  A    between atoms: _492  and  _495
REMARK  197  A    between atoms: _495  and  _496
REMARK  198  A    between atoms: _502  and  _504
REMARK  199  A    between atoms: _504  and  _505
REMARK  200  A    between atoms: _508  and  _510
REMARK  201  A    between atoms: _510  and  _511
REMARK  202  A    between atoms: _510  and  _513
REMARK  203  A    between atoms: _513  and  _514
REMARK  204  A    between atoms: _514  and  _515
REMARK  205  A    between atoms: _515  and  _516
REMARK  206  A    between atoms: _525  and  _527
REMARK  207  A    between atoms: _527  and  _528
REMARK  208  A    between atoms: _531  and  _533
REMARK  209  A    between atoms: _533  and  _534
REMARK  210  A    between atoms: _536  and  _538
REMARK  211  A    between atoms: _538  and  _539
REMARK  212  A    between atoms: _538  and  _541
REMARK  213  A    between atoms: _541  and  _542
REMARK  214  A    between atoms: _552  and  _554
REMARK  215  A    between atoms: _554  and  _555
REMARK  216  A    between atoms: _554  and  _557
REMARK  217  A    between atoms: _557  and  _558
REMARK  218  A    between atoms: _559  and  _561
REMARK  219  A    between atoms: _561  and  _562
REMARK  220  A    between atoms: _565  and  _567
REMARK  221  A    between atoms: _567  and  _568
REMARK  222  A    between atoms: _567  and  _570
REMARK  223  A    between atoms: _570  and  _571
REMARK  224  A    between atoms: _574  and  _576
REMARK  225  A    between atoms: _576  and  _577
REMARK  226  A    between atoms: _576  and  _579
REMARK  227  A    between atoms: _579  and  _580
REMARK  228  A    between atoms: _585  and  _586
REMARK  229  A    between atoms: _588  and  _590
REMARK  230  A    between atoms: _590  and  _591
REMARK  231  A    between atoms: _590  and  _593
REMARK  232  A    between atoms: _593  and  _594
REMARK  233  A    between atoms: _596  and  _598
REMARK  234  A    between atoms: _598  and  _599
REMARK  235  A    between atoms: _598  and  _601
REMARK  236  A    between atoms: _601  and  _602
REMARK  237  A    between atoms: _608  and  _610
REMARK  238  A    between atoms: _610  and  _611
REMARK  239  A    between atoms: _610  and  _613
REMARK  240  A    between atoms: _613  and  _614
REMARK  241  A    between atoms: _617  and  _619
REMARK  242  A    between atoms: _619  and  _620
REMARK  243  A    between atoms: _619  and  _622
REMARK  244  A    between atoms: _622  and  _623
REMARK  245  A    between atoms: _625  and  _627
REMARK  246  A    between atoms: _627  and  _628
REMARK  247  A    between atoms: _627  and  _630
REMARK  248  A    between atoms: _630  and  _631
REMARK  249  A    between atoms: _636  and  _638
REMARK  250  A    between atoms: _638  and  _639
REMARK  251  A    between atoms: _638  and  _641
REMARK  252  A    between atoms: _641  and  _642
REMARK  253  A    between atoms: _647  and  _649
REMARK  254  A    between atoms: _649  and  _650
REMARK  255  A    between atoms: _649  and  _652
REMARK  256  A    between atoms: _652  and  _653
REMARK  257  A    between atoms: _656  and  _658
REMARK  258  A    between atoms: _658  and  _659
REMARK  259  A    between atoms: _662  and  _664
REMARK  260  A    between atoms: _664  and  _665
REMARK  261  A    between atoms: _664  and  _667
REMARK  262  A    between atoms: _667  and  _668
REMARK  263  A    between atoms: _673  and  _674
REMARK  264  A    between atoms: _676  and  _678
REMARK  265  A    between atoms: _678  and  _679
REMARK  266  A    between atoms: _678  and  _681
REMARK  267  A    between atoms: _681  and  _682
REMARK  268  A    between atoms: _687  and  _688
REMARK  269  A    between atoms: _690  and  _692
REMARK  270  A    between atoms: _692  and  _693
REMARK  271  A    between atoms: _692  and  _695
REMARK  272  A    between atoms: _698  and  _700
REMARK  273  A    between atoms: _700  and  _701
REMARK  274  A    between atoms: _700  and  _703
REMARK  275  A    between atoms: _703  and  _704
REMARK  276  A    between atoms: _709  and  _711
REMARK  277  A    between atoms: _711  and  _712
REMARK  278  A    between atoms: _715  and  _717
REMARK  279  A    between atoms: _717  and  _718
REMARK  280  A    between atoms: _717  and  _720
REMARK  281  A    between atoms: _720  and  _721
REMARK  282  A    between atoms: _721  and  _722
REMARK  283  A    between atoms: _722  and  _723
REMARK  284  A    between atoms: _732  and  _734
REMARK  285  A    between atoms: _734  and  _735
REMARK  286  A    between atoms: _734  and  _737
REMARK  287  A    between atoms: _737  and  _738
REMARK  288  A    between atoms: _741  and  _743
REMARK  289  A    between atoms: _743  and  _744
REMARK  290  A    between atoms: _743  and  _746
REMARK  291  A    between atoms: _746  and  _747
REMARK  292  A    between atoms: _750  and  _752
REMARK  293  A    between atoms: _752  and  _753
REMARK  294  A    between atoms: _752  and  _755
REMARK  295  A    between atoms: _755  and  _756
REMARK  296  A    between atoms: _797  and  _800
REMARK                            x       y       z     vdW  Elec       q    Type
REMARK                         _______ _______ _______ _____ _____    ______ ____
ROOT
ATOM      1  O   HOH     1       8.924  13.470   9.828  0.00  0.00    +0.000 OA
ENDROOT
TORSDOF 0
REMARK  Name = ../refined-set-2016/1b1h/1b1h_pocket.pdb
REMARK  296 active torsions:
REMARK  status: ('A' for Active; 'I' for Inactive)
REMARK    1  A    between atoms: _1  and  _3
REMARK    2  A    between atoms: _3  and  _4
REMARK    3  A    between atoms: _3  and  _6
REMARK    4  A    between atoms: _6  and  _7
REMARK    5  A    between atoms: _12  and  _14
REMARK    6  A    between atoms: _14  and  _15
REMARK    7  A    between atoms: _17  and  _19
REMARK    8  A    between atoms: _19  and  _20
REMARK    9  A    between atoms: _19  and  _22
REMARK   10  A    between atoms: _22  and  _23
REMARK   11  A    between atoms: _25  and  _27
REMARK   12  A    between atoms: _27  and  _28
REMARK   13  A    between atoms: _27  and  _30
REMARK   14  A    between atoms: _30  and  _31
REMARK   15  A    between atoms: _31  and  _32
REMARK   16  A    between atoms: _37  and  _39
REMARK   17  A    between atoms: _39  and  _40
REMARK   18  A    between atoms: _39  and  _42
REMARK   19  A    between atoms: _42  and  _43
REMARK   20  A    between atoms: _46  and  _48
REMARK   21  A    between atoms: _48  and  _49
REMARK   22  A    between atoms: _48  and  _51
REMARK   23  A    between atoms: _51  and  _52
REMARK   24  A    between atoms: _52  and  _53
REMARK   25  A    between atoms: _56  and  _58
REMARK   26  A    between atoms: _58  and  _59
REMARK   27  A    between atoms: _61  and  _63
REMARK   28  A    between atoms: _63  and  _64
REMARK   29  A    between atoms: _63  and  _66
REMARK   30  A    between atoms: _70  and  _71
REMARK   31  A    between atoms: _76  and  _78
REMARK   32  A    between atoms: _78  and  _79
REMARK   33  A    between atoms: _78  and  _81
REMARK   34  A    between atoms: _81  and  _82
REMARK   35  A    between atoms: _82  and  _83
REMARK   36  A    between atoms: _86  and  _88
REMARK   37  A    between atoms: _88  and  _89
REMARK   38  A    between atoms: _88  and  _91
REMARK   39  A    between atoms: _91  and  _92
REMARK   40  A    between atoms: _94  and  _96
REMARK   41  A    between atoms: _96  and  _97
REMARK   42  A    between atoms: _96  and  _99
REMARK   43  A    between atoms: _99  and  _100
REMARK   44  A    between atoms: _105  and  _107
REMARK   45  A    between atoms: _107  and  _108
REMARK   46  A    between atoms: _107  and  _110
REMARK   47  A    between atoms: _110  and  _111
REMARK   48  A    between atoms: _111  and  _112
REMARK   49  A    between atoms: _112  and  _113
REMARK   50  A    between atoms: _123  and  _124
REMARK   51  A    between atoms: _129  and  _131
REMARK   52  A    between atoms: _131  and  _132
REMARK   53  A    between atoms: _131  and  _134
REMARK   54  A    between atoms: _134  and  _135
REMARK   55  A    between atoms: _140  and  _141
REMARK   56  A    between atoms: _143  and  _145
REMARK   57  A    between atoms: _145  and  _146
REMARK   58  A    between atoms: _145  and  _148
REMARK   59  A    between atoms: _148  and  _149
REMARK   60  A    between atoms: _154  and  _155
REMARK   61  A    between atoms: _157  and  _159
REMARK   62  A    between atoms: _159  and  _160
REMARK   63  A    between atoms: _159  and  _162
REMARK   64  A    between atoms: _165  and  _167
REMARK   65  A    between atoms: _167  and  _168
REMARK   66  A    between atoms: _167  and  _170
REMARK   67  A    between atoms: _170  and  _171
REMARK   68  A    between atoms: _177  and  _178
REMARK   69  A    between atoms: _183  and  _185
REMARK   70  A    between atoms: _185  and  _186
REMARK   71  A    between atoms: _185  and  _188
REMARK   72  A    between atoms: _188  and  _189
REMARK   73  A    between atoms: _191  and  _193
REMARK   74  A    between atoms: _193  and  _194
REMARK   75  A    between atoms: _193  and  _196
REMARK   76  A    between atoms: _196  and  _197
REMARK   77  A    between atoms: _197  and  _198
REMARK   78  A    between atoms: _201  and  _203
REMARK   79  A    between atoms: _203  and  _204
REMARK   80  A    between atoms: _203  and  _206
REMARK   81  A    between atoms: _206  and  _207
REMARK   82  A    between atoms: _212  and  _213
REMARK   83  A    between atoms: _215  and  _217
REMARK   84  A    between atoms: _217  and  _218
REMARK   85  A    between atoms: _217  and  _220
REMARK   86  A    between atoms: _220  and  _221
REMARK   87  A    between atoms: _226  and  _228
REMARK   88  A    between atoms: _228  and  _229
REMARK   89  A    between atoms: _228  and  _231
REMARK   90  A    between atoms: _231  and  _232
REMARK   91  A    between atoms: _237  and  _239
REMARK   92  A    between atoms: _239  and  _240
REMARK   93  A    between atoms: _239  and  _242
REMARK   94  A    between atoms: _242  and  _243
REMARK   95  A    between atoms: _243  and  _244
REMARK   96  A    between atoms: _246  and  _248
REMARK   97  A    between atoms: _248  and  _249
REMARK   98  A    between atoms: _248  and  _251
REMARK   99  A    between atoms: _251  and  _252
REMARK  100  A    between atoms: _257  and  _258
REMARK  101  A    between atoms: _260  and  _262
REMARK  102  A    between atoms: _262  and  _263
REMARK  103  A    between atoms: _262  and  _265
REMARK  104  A    between atoms: _265  and  _266
REMARK  105  A    between atoms: _269  and  _271
REMARK  106  A    between atoms: _271  and  _272
REMARK  107  A    between atoms: _271  and  _274
REMARK  108  A    between atoms: _274  and  _275
REMARK  109  A    between atoms: _275  and  _558
REMARK  110  A    between atoms: _276  and  _278
REMARK  111  A    between atoms: _278  and  _279
REMARK  112  A    between atoms: _278  and  _281
REMARK  113  A    between atoms: _281  and  _282
REMARK  114  A    between atoms: _285  and  _287
REMARK  115  A    between atoms: _287  and  _288
REMARK  116  A    between atoms: _287  and  _290
REMARK  117  A    between atoms: _290  and  _291
REMARK  118  A    between atoms: _296  and  _297
REMARK  119  A    between atoms: _299  and  _301
REMARK  120  A    between atoms: _301  and  _302
REMARK  121  A    between atoms: _301  and  _304
REMARK  122  A    between atoms: _304  and  _305
REMARK  123  A    between atoms: _310  and  _311
REMARK  124  A    between atoms: _313  and  _315
REMARK  125  A    between atoms: _315  and  _316
REMARK  126  A    between atoms: _315  and  _318
REMARK  127  A    between atoms: _318  and  _319
REMARK  128  A    between atoms: _319  and  _320
REMARK  129  A    between atoms: _323  and  _325
REMARK  130  A    between atoms: _325  and  _326
REMARK  131  A    between atoms: _325  and  _328
REMARK  132  A    between atoms: _328  and  _329
REMARK  133  A    between atoms: _334  and  _335
REMARK  134  A    between atoms: _337  and  _339
REMARK  135  A    between atoms: _339  and  _340
REMARK  136  A    between atoms: _339  and  _342
REMARK  137  A    between atoms: _342  and  _343
REMARK  138  A    between atoms: _348  and  _350
REMARK  139  A    between atoms: _350  and  _351
REMARK  140  A    between atoms: _350  and  _353
REMARK  141  A    between atoms: _353  and  _354
REMARK  142  A    between atoms: _357  and  _359
REMARK  143  A    between atoms: _359  and  _360
REMARK  144  A    between atoms: _359  and  _362
REMARK  145  A    between atoms: _362  and  _363
REMARK  146  A    between atoms: _368  and  _370
REMARK  147  A    between atoms: _370  and  _371
REMARK  148  A    between atoms: _370  and  _373
REMARK  149  A    between atoms: _373  and  _374
REMARK  150  A    between atoms: _384  and  _386
REMARK  151  A    between atoms: _386  and  _387
REMARK  152  A    between atoms: _386  and  _389
REMARK  153  A    between atoms: _389  and  _390
REMARK  154  A    between atoms: _390  and  _391
REMARK  155  A    between atoms: _391  and  _392
REMARK  156  A    between atoms: _392  and  _393
REMARK  157  A    between atoms: _397  and  _399
REMARK  158  A    between atoms: _399  and  _400
REMARK  159  A    between atoms: _399  and  _402
REMARK  160  A    between atoms: _402  and  _403
REMARK  161  A    between atoms: _406  and  _408
REMARK  162  A    between atoms: _408  and  _409
REMARK  163  A    between atoms: _408  and  _411
REMARK  164  A    between atoms: _411  and  _412
REMARK  165  A    between atoms: _418  and  _420
REMARK  166  A    between atoms: _420  and  _421
REMARK  167  A    between atoms: _420  and  _423
REMARK  168  A    between atoms: _423  and  _424
REMARK  169  A    between atoms: _427  and  _429
REMARK  170  A    between atoms: _429  and  _430
REMARK  171  A    between atoms: _429  and  _432
REMARK  172  A    between atoms: _432  and  _433
REMARK  173  A    between atoms: _436  and  _438
REMARK  174  A    between atoms: _438  and  _439
REMARK  175  A    between atoms: _438  and  _441
REMARK  176  A    between atoms: _441  and  _442
REMARK  177  A    between atoms: _445  and  _447
REMARK  178  A    between atoms: _447  and  _448
REMARK  179  A    between atoms: _447  and  _450
REMARK  180  A    between atoms: _450  and  _451
REMARK  181  A    between atoms: _451  and  _452
REMARK  182  A    between atoms: _452  and  _453
REMARK  183  A    between atoms: _462  and  _464
REMARK  184  A    between atoms: _464  and  _465
REMARK  185  A    between atoms: _464  and  _467
REMARK  186  A    between atoms: _467  and  _468
REMARK  187  A    between atoms: _473  and  _475
REMARK  188  A    between atoms: _475  and  _476
REMARK  189  A    between atoms: _475  and  _478
REMARK  190  A    between atoms: _478  and  _479
REMARK  191  A    between atoms: _479  and  _480
REMARK  192  A    between atoms: _485  and  _487
REMARK  193  A    between atoms: _487  and  _488
REMARK  194  A    between atoms: _490  and  _492
REMARK  195  A    between atoms: _492  and  _493
REMARK  196  A    between atoms: _492  and  _495
REMARK  197  A    between atoms: _495  and  _496
REMARK  198  A    between atoms: _502  and  _504
REMARK  199  A    between atoms: _504  and  _505
REMARK  200  A    between atoms: _508  and  _510
REMARK  201  A    between atoms: _510  and  _511
REMARK  202  A    between atoms: _510  and  _513
REMARK  203  A    between atoms: _513  and  _514
REMARK  204  A    between atoms: _514  and  _515
REMARK  205  A    between atoms: _515  and  _516
REMARK  206  A    between atoms: _525  and  _527
REMARK  207  A    between atoms: _527  and  _528
REMARK  208  A    between atoms: _531  and  _533
REMARK  209  A    between atoms: _533  and  _534
REMARK  210  A    between atoms: _536  and  _538
REMARK  211  A    between atoms: _538  and  _539
REMARK  212  A    between atoms: _538  and  _541
REMARK  213  A    between atoms: _541  and  _542
REMARK  214  A    between atoms: _552  and  _554
REMARK  215  A    between atoms: _554  and  _555
REMARK  216  A    between atoms: _554  and  _557
REMARK  217  A    between atoms: _557  and  _558
REMARK  218  A    between atoms: _559  and  _561
REMARK  219  A    between atoms: _561  and  _562
REMARK  220  A    between atoms: _565  and  _567
REMARK  221  A    between atoms: _567  and  _568
REMARK  222  A    between atoms: _567  and  _570
REMARK  223  A    between atoms: _570  and  _571
REMARK  224  A    between atoms: _574  and  _576
REMARK  225  A    between atoms: _576  and  _577
REMARK  226  A    between atoms: _576  and  _579
REMARK  227  A    between atoms: _579  and  _580
REMARK  228  A    between atoms: _585  and  _586
REMARK  229  A    between atoms: _588  and  _590
REMARK  230  A    between atoms: _590  and  _591
REMARK  231  A    between atoms: _590  and  _593
REMARK  232  A    between atoms: _593  and  _594
REMARK  233  A    between atoms: _596  and  _598
REMARK  234  A    between atoms: _598  and  _599
REMARK  235  A    between atoms: _598  and  _601
REMARK  236  A    between atoms: _601  and  _602
REMARK  237  A    between atoms: _608  and  _610
REMARK  238  A    between atoms: _610  and  _611
REMARK  239  A    between atoms: _610  and  _613
REMARK  240  A    between atoms: _613  and  _614
REMARK  241  A    between atoms: _617  and  _619
REMARK  242  A    between atoms: _619  and  _620
REMARK  243  A    between atoms: _619  and  _622
REMARK  244  A    between atoms: _622  and  _623
REMARK  245  A    between atoms: _625  and  _627
REMARK  246  A    between atoms: _627  and  _628
REMARK  247  A    between atoms: _627  and  _630
REMARK  248  A    between atoms: _630  and  _631
REMARK  249  A    between atoms: _636  and  _638
REMARK  250  A    between atoms: _638  and  _639
REMARK  251  A    between atoms: _638  and  _641
REMARK  252  A    between atoms: _641  and  _642
REMARK  253  A    between atoms: _647  and  _649
REMARK  254  A    between atoms: _649  and  _650
REMARK  255  A    between atoms: _649  and  _652
REMARK  256  A    between atoms: _652  and  _653
REMARK  257  A    between atoms: _656  and  _658
REMARK  258  A    between atoms: _658  and  _659
REMARK  259  A    between atoms: _662  and  _664
REMARK  260  A    between atoms: _664  and  _665
REMARK  261  A    between atoms: _664  and  _667
REMARK  262  A    between atoms: _667  and  _668
REMARK  263  A    between atoms: _673  and  _674
REMARK  264  A    between atoms: _676  and  _678
REMARK  265  A    between atoms: _678  and  _679
REMARK  266  A    between atoms: _678  and  _681
REMARK  267  A    between atoms: _681  and  _682
REMARK  268  A    between atoms: _687  and  _688
REMARK  269  A    between atoms: _690  and  _692
REMARK  270  A    between atoms: _692  and  _693
REMARK  271  A    between atoms: _692  and  _695
REMARK  272  A    between atoms: _698  and  _700
REMARK  273  A    between atoms: _700  and  _701
REMARK  274  A    between atoms: _700  and  _703
REMARK  275  A    between atoms: _703  and  _704
REMARK  276  A    between atoms: _709  and  _711
REMARK  277  A    between atoms: _711  and  _712
REMARK  278  A    between atoms: _715  and  _717
REMARK  279  A    between atoms: _717  and  _718
REMARK  280  A    between atoms: _717  and  _720
REMARK  281  A    between atoms: _720  and  _721
REMARK  282  A    between atoms: _721  and  _722
REMARK  283  A    between atoms: _722  and  _723
REMARK  284  A    between atoms: _732  and  _734
REMARK  285  A    between atoms: _734  and  _735
REMARK  286  A    between atoms: _734  and  _737
REMARK  287  A    between atoms: _737  and  _738
REMARK  288  A    between atoms: _741  and  _743
REMARK  289  A    between atoms: _743  and  _744
REMARK  290  A    between atoms: _743  and  _746
REMARK  291  A    between atoms: _746  and  _747
REMARK  292  A    between atoms: _750  and  _752
REMARK  293  A    between atoms: _752  and  _753
REMARK  294  A    between atoms: _752  and  _755
REMARK  295  A    between atoms: _755  and  _756
REMARK  296  A    between atoms: _797  and  _800
REMARK                            x       y       z     vdW  Elec       q    Type
REMARK                         _______ _______ _______ _____ _____    ______ ____
ROOT
ATOM      1  O   HOH     1       6.055   8.257   7.712  0.00  0.00    +0.000 OA
ENDROOT
TORSDOF 0
REMARK  Name = ../refined-set-2016/1b1h/1b1h_pocket.pdb
REMARK  296 active torsions:
REMARK  status: ('A' for Active; 'I' for Inactive)
REMARK    1  A    between atoms: _1  and  _3
REMARK    2  A    between atoms: _3  and  _4
REMARK    3  A    between atoms: _3  and  _6
REMARK    4  A    between atoms: _6  and  _7
REMARK    5  A    between atoms: _12  and  _14
REMARK    6  A    between atoms: _14  and  _15
REMARK    7  A    between atoms: _17  and  _19
REMARK    8  A    between atoms: _19  and  _20
REMARK    9  A    between atoms: _19  and  _22
REMARK   10  A    between atoms: _22  and  _23
REMARK   11  A    between atoms: _25  and  _27
REMARK   12  A    between atoms: _27  and  _28
REMARK   13  A    between atoms: _27  and  _30
REMARK   14  A    between atoms: _30  and  _31
REMARK   15  A    between atoms: _31  and  _32
REMARK   16  A    between atoms: _37  and  _39
REMARK   17  A    between atoms: _39  and  _40
REMARK   18  A    between atoms: _39  and  _42
REMARK   19  A    between atoms: _42  and  _43
REMARK   20  A    between atoms: _46  and  _48
REMARK   21  A    between atoms: _48  and  _49
REMARK   22  A    between atoms: _48  and  _51
REMARK   23  A    between atoms: _51  and  _52
REMARK   24  A    between atoms: _52  and  _53
REMARK   25  A    between atoms: _56  and  _58
REMARK   26  A    between atoms: _58  and  _59
REMARK   27  A    between atoms: _61  and  _63
REMARK   28  A    between atoms: _63  and  _64
REMARK   29  A    between atoms: _63  and  _66
REMARK   30  A    between atoms: _70  and  _71
REMARK   31  A    between atoms: _76  and  _78
REMARK   32  A    between atoms: _78  and  _79
REMARK   33  A    between atoms: _78  and  _81
REMARK   34  A    between atoms: _81  and  _82
REMARK   35  A    between atoms: _82  and  _83
REMARK   36  A    between atoms: _86  and  _88
REMARK   37  A    between atoms: _88  and  _89
REMARK   38  A    between atoms: _88  and  _91
REMARK   39  A    between atoms: _91  and  _92
REMARK   40  A    between atoms: _94  and  _96
REMARK   41  A    between atoms: _96  and  _97
REMARK   42  A    between atoms: _96  and  _99
REMARK   43  A    between atoms: _99  and  _100
REMARK   44  A    between atoms: _105  and  _107
REMARK   45  A    between atoms: _107  and  _108
REMARK   46  A    between atoms: _107  and  _110
REMARK   47  A    between atoms: _110  and  _111
REMARK   48  A    between atoms: _111  and  _112
REMARK   49  A    between atoms: _112  and  _113
REMARK   50  A    between atoms: _123  and  _124
REMARK   51  A    between atoms: _129  and  _131
REMARK   52  A    between atoms: _131  and  _132
REMARK   53  A    between atoms: _131  and  _134
REMARK   54  A    between atoms: _134  and  _135
REMARK   55  A    between atoms: _140  and  _141
REMARK   56  A    between atoms: _143  and  _145
REMARK   57  A    between atoms: _145  and  _146
REMARK   58  A    between atoms: _145  and  _148
REMARK   59  A    between atoms: _148  and  _149
REMARK   60  A    between atoms: _154  and  _155
REMARK   61  A    between atoms: _157  and  _159
REMARK   62  A    between atoms: _159  and  _160
REMARK   63  A    between atoms: _159  and  _162
REMARK   64  A    between atoms: _165  and  _167
REMARK   65  A    between atoms: _167  and  _168
REMARK   66  A    between atoms: _167  and  _170
REMARK   67  A    between atoms: _170  and  _171
REMARK   68  A    between atoms: _177  and  _178
REMARK   69  A    between atoms: _183  and  _185
REMARK   70  A    between atoms: _185  and  _186
REMARK   71  A    between atoms: _185  and  _188
REMARK   72  A    between atoms: _188  and  _189
REMARK   73  A    between atoms: _191  and  _193
REMARK   74  A    between atoms: _193  and  _194
REMARK   75  A    between atoms: _193  and  _196
REMARK   76  A    between atoms: _196  and  _197
REMARK   77  A    between atoms: _197  and  _198
REMARK   78  A    between atoms: _201  and  _203
REMARK   79  A    between atoms: _203  and  _204
REMARK   80  A    between atoms: _203  and  _206
REMARK   81  A    between atoms: _206  and  _207
REMARK   82  A    between atoms: _212  and  _213
REMARK   83  A    between atoms: _215  and  _217
REMARK   84  A    between atoms: _217  and  _218
REMARK   85  A    between atoms: _217  and  _220
REMARK   86  A    between atoms: _220  and  _221
REMARK   87  A    between atoms: _226  and  _228
REMARK   88  A    between atoms: _228  and  _229
REMARK   89  A    between atoms: _228  and  _231
REMARK   90  A    between atoms: _231  and  _232
REMARK   91  A    between atoms: _237  and  _239
REMARK   92  A    between atoms: _239  and  _240
REMARK   93  A    between atoms: _239  and  _242
REMARK   94  A    between atoms: _242  and  _243
REMARK   95  A    between atoms: _243  and  _244
REMARK   96  A    between atoms: _246  and  _248
REMARK   97  A    between atoms: _248  and  _249
REMARK   98  A    between atoms: _248  and  _251
REMARK   99  A    between atoms: _251  and  _252
REMARK  100  A    between atoms: _257  and  _258
REMARK  101  A    between atoms: _260  and  _262
REMARK  102  A    between atoms: _262  and  _263
REMARK  103  A    between atoms: _262  and  _265
REMARK  104  A    between atoms: _265  and  _266
REMARK  105  A    between atoms: _269  and  _271
REMARK  106  A    between atoms: _271  and  _272
REMARK  107  A    between atoms: _271  and  _274
REMARK  108  A    between atoms: _274  and  _275
REMARK  109  A    between atoms: _275  and  _558
REMARK  110  A    between atoms: _276  and  _278
REMARK  111  A    between atoms: _278  and  _279
REMARK  112  A    between atoms: _278  and  _281
REMARK  113  A    between atoms: _281  and  _282
REMARK  114  A    between atoms: _285  and  _287
REMARK  115  A    between atoms: _287  and  _288
REMARK  116  A    between atoms: _287  and  _290
REMARK  117  A    between atoms: _290  and  _291
REMARK  118  A    between atoms: _296  and  _297
REMARK  119  A    between atoms: _299  and  _301
REMARK  120  A    between atoms: _301  and  _302
REMARK  121  A    between atoms: _301  and  _304
REMARK  122  A    between atoms: _304  and  _305
REMARK  123  A    between atoms: _310  and  _311
REMARK  124  A    between atoms: _313  and  _315
REMARK  125  A    between atoms: _315  and  _316
REMARK  126  A    between atoms: _315  and  _318
REMARK  127  A    between atoms: _318  and  _319
REMARK  128  A    between atoms: _319  and  _320
REMARK  129  A    between atoms: _323  and  _325
REMARK  130  A    between atoms: _325  and  _326
REMARK  131  A    between atoms: _325  and  _328
REMARK  132  A    between atoms: _328  and  _329
REMARK  133  A    between atoms: _334  and  _335
REMARK  134  A    between atoms: _337  and  _339
REMARK  135  A    between atoms: _339  and  _340
REMARK  136  A    between atoms: _339  and  _342
REMARK  137  A    between atoms: _342  and  _343
REMARK  138  A    between atoms: _348  and  _350
REMARK  139  A    between atoms: _350  and  _351
REMARK  140  A    between atoms: _350  and  _353
REMARK  141  A    between atoms: _353  and  _354
REMARK  142  A    between atoms: _357  and  _359
REMARK  143  A    between atoms: _359  and  _360
REMARK  144  A    between atoms: _359  and  _362
REMARK  145  A    between atoms: _362  and  _363
REMARK  146  A    between atoms: _368  and  _370
REMARK  147  A    between atoms: _370  and  _371
REMARK  148  A    between atoms: _370  and  _373
REMARK  149  A    between atoms: _373  and  _374
REMARK  150  A    between atoms: _384  and  _386
REMARK  151  A    between atoms: _386  and  _387
REMARK  152  A    between atoms: _386  and  _389
REMARK  153  A    between atoms: _389  and  _390
REMARK  154  A    between atoms: _390  and  _391
REMARK  155  A    between atoms: _391  and  _392
REMARK  156  A    between atoms: _392  and  _393
REMARK  157  A    between atoms: _397  and  _399
REMARK  158  A    between atoms: _399  and  _400
REMARK  159  A    between atoms: _399  and  _402
REMARK  160  A    between atoms: _402  and  _403
REMARK  161  A    between atoms: _406  and  _408
REMARK  162  A    between atoms: _408  and  _409
REMARK  163  A    between atoms: _408  and  _411
REMARK  164  A    between atoms: _411  and  _412
REMARK  165  A    between atoms: _418  and  _420
REMARK  166  A    between atoms: _420  and  _421
REMARK  167  A    between atoms: _420  and  _423
REMARK  168  A    between atoms: _423  and  _424
REMARK  169  A    between atoms: _427  and  _429
REMARK  170  A    between atoms: _429  and  _430
REMARK  171  A    between atoms: _429  and  _432
REMARK  172  A    between atoms: _432  and  _433
REMARK  173  A    between atoms: _436  and  _438
REMARK  174  A    between atoms: _438  and  _439
REMARK  175  A    between atoms: _438  and  _441
REMARK  176  A    between atoms: _441  and  _442
REMARK  177  A    between atoms: _445  and  _447
REMARK  178  A    between atoms: _447  and  _448
REMARK  179  A    between atoms: _447  and  _450
REMARK  180  A    between atoms: _450  and  _451
REMARK  181  A    between atoms: _451  and  _452
REMARK  182  A    between atoms: _452  and  _453
REMARK  183  A    between atoms: _462  and  _464
REMARK  184  A    between atoms: _464  and  _465
REMARK  185  A    between atoms: _464  and  _467
REMARK  186  A    between atoms: _467  and  _468
REMARK  187  A    between atoms: _473  and  _475
REMARK  188  A    between atoms: _475  and  _476
REMARK  189  A    between atoms: _475  and  _478
REMARK  190  A    between atoms: _478  and  _479
REMARK  191  A    between atoms: _479  and  _480
REMARK  192  A    between atoms: _485  and  _487
REMARK  193  A    between atoms: _487  and  _488
REMARK  194  A    between atoms: _490  and  _492
REMARK  195  A    between atoms: _492  and  _493
REMARK  196  A    between atoms: _492  and  _495
REMARK  197  A    between atoms: _495  and  _496
REMARK  198  A    between atoms: _502  and  _504
REMARK  199  A    between atoms: _504  and  _505
REMARK  200  A    between atoms: _508  and  _510
REMARK  201  A    between atoms: _510  and  _511
REMARK  202  A    between atoms: _510  and  _513
REMARK  203  A    between atoms: _513  and  _514
REMARK  204  A    between atoms: _514  and  _515
REMARK  205  A    between atoms: _515  and  _516
REMARK  206  A    between atoms: _525  and  _527
REMARK  207  A    between atoms: _527  and  _528
REMARK  208  A    between atoms: _531  and  _533
REMARK  209  A    between atoms: _533  and  _534
REMARK  210  A    between atoms: _536  and  _538
REMARK  211  A    between atoms: _538  and  _539
REMARK  212  A    between atoms: _538  and  _541
REMARK  213  A    between atoms: _541  and  _542
REMARK  214  A    between atoms: _552  and  _554
REMARK  215  A    between atoms: _554  and  _555
REMARK  216  A    between atoms: _554  and  _557
REMARK  217  A    between atoms: _557  and  _558
REMARK  218  A    between atoms: _559  and  _561
REMARK  219  A    between atoms: _561  and  _562
REMARK  220  A    between atoms: _565  and  _567
REMARK  221  A    between atoms: _567  and  _568
REMARK  222  A    between atoms: _567  and  _570
REMARK  223  A    between atoms: _570  and  _571
REMARK  224  A    between atoms: _574  and  _576
REMARK  225  A    between atoms: _576  and  _577
REMARK  226  A    between atoms: _576  and  _579
REMARK  227  A    between atoms: _579  and  _580
REMARK  228  A    between atoms: _585  and  _586
REMARK  229  A    between atoms: _588  and  _590
REMARK  230  A    between atoms: _590  and  _591
REMARK  231  A    between atoms: _590  and  _593
REMARK  232  A    between atoms: _593  and  _594
REMARK  233  A    between atoms: _596  and  _598
REMARK  234  A    between atoms: _598  and  _599
REMARK  235  A    between atoms: _598  and  _601
REMARK  236  A    between atoms: _601  and  _602
REMARK  237  A    between atoms: _608  and  _610
REMARK  238  A    between atoms: _610  and  _611
REMARK  239  A    between atoms: _610  and  _613
REMARK  240  A    between atoms: _613  and  _614
REMARK  241  A    between atoms: _617  and  _619
REMARK  242  A    between atoms: _619  and  _620
REMARK  243  A    between atoms: _619  and  _622
REMARK  244  A    between atoms: _622  and  _623
REMARK  245  A    between atoms: _625  and  _627
REMARK  246  A    between atoms: _627  and  _628
REMARK  247  A    between atoms: _627  and  _630
REMARK  248  A    between atoms: _630  and  _631
REMARK  249  A    between atoms: _636  and  _638
REMARK  250  A    between atoms: _638  and  _639
REMARK  251  A    between atoms: _638  and  _641
REMARK  252  A    between atoms: _641  and  _642
REMARK  253  A    between atoms: _647  and  _649
REMARK  254  A    between atoms: _649  and  _650
REMARK  255  A    between atoms: _649  and  _652
REMARK  256  A    between atoms: _652  and  _653
REMARK  257  A    between atoms: _656  and  _658
REMARK  258  A    between atoms: _658  and  _659
REMARK  259  A    between atoms: _662  and  _664
REMARK  260  A    between atoms: _664  and  _665
REMARK  261  A    between atoms: _664  and  _667
REMARK  262  A    between atoms: _667  and  _668
REMARK  263  A    between atoms: _673  and  _674
REMARK  264  A    between atoms: _676  and  _678
REMARK  265  A    between atoms: _678  and  _679
REMARK  266  A    between atoms: _678  and  _681
REMARK  267  A    between atoms: _681  and  _682
REMARK  268  A    between atoms: _687  and  _688
REMARK  269  A    between atoms: _690  and  _692
REMARK  270  A    between atoms: _692  and  _693
REMARK  271  A    between atoms: _692  and  _695
REMARK  272  A    between atoms: _698  and  _700
REMARK  273  A    between atoms: _700  and  _701
REMARK  274  A    between atoms: _700  and  _703
REMARK  275  A    between atoms: _703  and  _704
REMARK  276  A    between atoms: _709  and  _711
REMARK  277  A    between atoms: _711  and  _712
REMARK  278  A    between atoms: _715  and  _717
REMARK  279  A    between atoms: _717  and  _718
REMARK  280  A    between atoms: _717  and  _720
REMARK  281  A    between atoms: _720  and  _721
REMARK  282  A    between atoms: _721  and  _722
REMARK  283  A    between atoms: _722  and  _723
REMARK  284  A    between atoms: _732  and  _734
REMARK  285  A    between atoms: _734  and  _735
REMARK  286  A    between atoms: _734  and  _737
REMARK  287  A    between atoms: _737  and  _738
REMARK  288  A    between atoms: _741  and  _743
REMARK  289  A    between atoms: _743  and  _744
REMARK  290  A    between atoms: _743  and  _746
REMARK  291  A    between atoms: _746  and  _747
REMARK  292  A    between atoms: _750  and  _752
REMARK  293  A    between atoms: _752  and  _753
REMARK  294  A    between atoms: _752  and  _755
REMARK  295  A    between atoms: _755  and  _756
REMARK  296  A    between atoms: _797  and  _800
REMARK                            x       y       z     vdW  Elec       q    Type
REMARK                         _______ _______ _______ _____ _____    ______ ____
ROOT
ATOM      1  O   HOH     1      -0.758  15.421   8.750  0.00  0.00    +0.000 OA
ENDROOT
TORSDOF 0
REMARK  Name = ../refined-set-2016/1b1h/1b1h_pocket.pdb
REMARK  296 active torsions:
REMARK  status: ('A' for Active; 'I' for Inactive)
REMARK    1  A    between atoms: _1  and  _3
REMARK    2  A    between atoms: _3  and  _4
REMARK    3  A    between atoms: _3  and  _6
REMARK    4  A    between atoms: _6  and  _7
REMARK    5  A    between atoms: _12  and  _14
REMARK    6  A    between atoms: _14  and  _15
REMARK    7  A    between atoms: _17  and  _19
REMARK    8  A    between atoms: _19  and  _20
REMARK    9  A    between atoms: _19  and  _22
REMARK   10  A    between atoms: _22  and  _23
REMARK   11  A    between atoms: _25  and  _27
REMARK   12  A    between atoms: _27  and  _28
REMARK   13  A    between atoms: _27  and  _30
REMARK   14  A    between atoms: _30  and  _31
REMARK   15  A    between atoms: _31  and  _32
REMARK   16  A    between atoms: _37  and  _39
REMARK   17  A    between atoms: _39  and  _40
REMARK   18  A    between atoms: _39  and  _42
REMARK   19  A    between atoms: _42  and  _43
REMARK   20  A    between atoms: _46  and  _48
REMARK   21  A    between atoms: _48  and  _49
REMARK   22  A    between atoms: _48  and  _51
REMARK   23  A    between atoms: _51  and  _52
REMARK   24  A    between atoms: _52  and  _53
REMARK   25  A    between atoms: _56  and  _58
REMARK   26  A    between atoms: _58  and  _59
REMARK   27  A    between atoms: _61  and  _63
REMARK   28  A    between atoms: _63  and  _64
REMARK   29  A    between atoms: _63  and  _66
REMARK   30  A    between atoms: _70  and  _71
REMARK   31  A    between atoms: _76  and  _78
REMARK   32  A    between atoms: _78  and  _79
REMARK   33  A    between atoms: _78  and  _81
REMARK   34  A    between atoms: _81  and  _82
REMARK   35  A    between atoms: _82  and  _83
REMARK   36  A    between atoms: _86  and  _88
REMARK   37  A    between atoms: _88  and  _89
REMARK   38  A    between atoms: _88  and  _91
REMARK   39  A    between atoms: _91  and  _92
REMARK   40  A    between atoms: _94  and  _96
REMARK   41  A    between atoms: _96  and  _97
REMARK   42  A    between atoms: _96  and  _99
REMARK   43  A    between atoms: _99  and  _100
REMARK   44  A    between atoms: _105  and  _107
REMARK   45  A    between atoms: _107  and  _108
REMARK   46  A    between atoms: _107  and  _110
REMARK   47  A    between atoms: _110  and  _111
REMARK   48  A    between atoms: _111  and  _112
REMARK   49  A    between atoms: _112  and  _113
REMARK   50  A    between atoms: _123  and  _124
REMARK   51  A    between atoms: _129  and  _131
REMARK   52  A    between atoms: _131  and  _132
REMARK   53  A    between atoms: _131  and  _134
REMARK   54  A    between atoms: _134  and  _135
REMARK   55  A    between atoms: _140  and  _141
REMARK   56  A    between atoms: _143  and  _145
REMARK   57  A    between atoms: _145  and  _146
REMARK   58  A    between atoms: _145  and  _148
REMARK   59  A    between atoms: _148  and  _149
REMARK   60  A    between atoms: _154  and  _155
REMARK   61  A    between atoms: _157  and  _159
REMARK   62  A    between atoms: _159  and  _160
REMARK   63  A    between atoms: _159  and  _162
REMARK   64  A    between atoms: _165  and  _167
REMARK   65  A    between atoms: _167  and  _168
REMARK   66  A    between atoms: _167  and  _170
REMARK   67  A    between atoms: _170  and  _171
REMARK   68  A    between atoms: _177  and  _178
REMARK   69  A    between atoms: _183  and  _185
REMARK   70  A    between atoms: _185  and  _186
REMARK   71  A    between atoms: _185  and  _188
REMARK   72  A    between atoms: _188  and  _189
REMARK   73  A    between atoms: _191  and  _193
REMARK   74  A    between atoms: _193  and  _194
REMARK   75  A    between atoms: _193  and  _196
REMARK   76  A    between atoms: _196  and  _197
REMARK   77  A    between atoms: _197  and  _198
REMARK   78  A    between atoms: _201  and  _203
REMARK   79  A    between atoms: _203  and  _204
REMARK   80  A    between atoms: _203  and  _206
REMARK   81  A    between atoms: _206  and  _207
REMARK   82  A    between atoms: _212  and  _213
REMARK   83  A    between atoms: _215  and  _217
REMARK   84  A    between atoms: _217  and  _218
REMARK   85  A    between atoms: _217  and  _220
REMARK   86  A    between atoms: _220  and  _221
REMARK   87  A    between atoms: _226  and  _228
REMARK   88  A    between atoms: _228  and  _229
REMARK   89  A    between atoms: _228  and  _231
REMARK   90  A    between atoms: _231  and  _232
REMARK   91  A    between atoms: _237  and  _239
REMARK   92  A    between atoms: _239  and  _240
REMARK   93  A    between atoms: _239  and  _242
REMARK   94  A    between atoms: _242  and  _243
REMARK   95  A    between atoms: _243  and  _244
REMARK   96  A    between atoms: _246  and  _248
REMARK   97  A    between atoms: _248  and  _249
REMARK   98  A    between atoms: _248  and  _251
REMARK   99  A    between atoms: _251  and  _252
REMARK  100  A    between atoms: _257  and  _258
REMARK  101  A    between atoms: _260  and  _262
REMARK  102  A    between atoms: _262  and  _263
REMARK  103  A    between atoms: _262  and  _265
REMARK  104  A    between atoms: _265  and  _266
REMARK  105  A    between atoms: _269  and  _271
REMARK  106  A    between atoms: _271  and  _272
REMARK  107  A    between atoms: _271  and  _274
REMARK  108  A    between atoms: _274  and  _275
REMARK  109  A    between atoms: _275  and  _558
REMARK  110  A    between atoms: _276  and  _278
REMARK  111  A    between atoms: _278  and  _279
REMARK  112  A    between atoms: _278  and  _281
REMARK  113  A    between atoms: _281  and  _282
REMARK  114  A    between atoms: _285  and  _287
REMARK  115  A    between atoms: _287  and  _288
REMARK  116  A    between atoms: _287  and  _290
REMARK  117  A    between atoms: _290  and  _291
REMARK  118  A    between atoms: _296  and  _297
REMARK  119  A    between atoms: _299  and  _301
REMARK  120  A    between atoms: _301  and  _302
REMARK  121  A    between atoms: _301  and  _304
REMARK  122  A    between atoms: _304  and  _305
REMARK  123  A    between atoms: _310  and  _311
REMARK  124  A    between atoms: _313  and  _315
REMARK  125  A    between atoms: _315  and  _316
REMARK  126  A    between atoms: _315  and  _318
REMARK  127  A    between atoms: _318  and  _319
REMARK  128  A    between atoms: _319  and  _320
REMARK  129  A    between atoms: _323  and  _325
REMARK  130  A    between atoms: _325  and  _326
REMARK  131  A    between atoms: _325  and  _328
REMARK  132  A    between atoms: _328  and  _329
REMARK  133  A    between atoms: _334  and  _335
REMARK  134  A    between atoms: _337  and  _339
REMARK  135  A    between atoms: _339  and  _340
REMARK  136  A    between atoms: _339  and  _342
REMARK  137  A    between atoms: _342  and  _343
REMARK  138  A    between atoms: _348  and  _350
REMARK  139  A    between atoms: _350  and  _351
REMARK  140  A    between atoms: _350  and  _353
REMARK  141  A    between atoms: _353  and  _354
REMARK  142  A    between atoms: _357  and  _359
REMARK  143  A    between atoms: _359  and  _360
REMARK  144  A    between atoms: _359  and  _362
REMARK  145  A    between atoms: _362  and  _363
REMARK  146  A    between atoms: _368  and  _370
REMARK  147  A    between atoms: _370  and  _371
REMARK  148  A    between atoms: _370  and  _373
REMARK  149  A    between atoms: _373  and  _374
REMARK  150  A    between atoms: _384  and  _386
REMARK  151  A    between atoms: _386  and  _387
REMARK  152  A    between atoms: _386  and  _389
REMARK  153  A    between atoms: _389  and  _390
REMARK  154  A    between atoms: _390  and  _391
REMARK  155  A    between atoms: _391  and  _392
REMARK  156  A    between atoms: _392  and  _393
REMARK  157  A    between atoms: _397  and  _399
REMARK  158  A    between atoms: _399  and  _400
REMARK  159  A    between atoms: _399  and  _402
REMARK  160  A    between atoms: _402  and  _403
REMARK  161  A    between atoms: _406  and  _408
REMARK  162  A    between atoms: _408  and  _409
REMARK  163  A    between atoms: _408  and  _411
REMARK  164  A    between atoms: _411  and  _412
REMARK  165  A    between atoms: _418  and  _420
REMARK  166  A    between atoms: _420  and  _421
REMARK  167  A    between atoms: _420  and  _423
REMARK  168  A    between atoms: _423  and  _424
REMARK  169  A    between atoms: _427  and  _429
REMARK  170  A    between atoms: _429  and  _430
REMARK  171  A    between atoms: _429  and  _432
REMARK  172  A    between atoms: _432  and  _433
REMARK  173  A    between atoms: _436  and  _438
REMARK  174  A    between atoms: _438  and  _439
REMARK  175  A    between atoms: _438  and  _441
REMARK  176  A    between atoms: _441  and  _442
REMARK  177  A    between atoms: _445  and  _447
REMARK  178  A    between atoms: _447  and  _448
REMARK  179  A    between atoms: _447  and  _450
REMARK  180  A    between atoms: _450  and  _451
REMARK  181  A    between atoms: _451  and  _452
REMARK  182  A    between atoms: _452  and  _453
REMARK  183  A    between atoms: _462  and  _464
REMARK  184  A    between atoms: _464  and  _465
REMARK  185  A    between atoms: _464  and  _467
REMARK  186  A    between atoms: _467  and  _468
REMARK  187  A    between atoms: _473  and  _475
REMARK  188  A    between atoms: _475  and  _476
REMARK  189  A    between atoms: _475  and  _478
REMARK  190  A    between atoms: _478  and  _479
REMARK  191  A    between atoms: _479  and  _480
REMARK  192  A    between atoms: _485  and  _487
REMARK  193  A    between atoms: _487  and  _488
REMARK  194  A    between atoms: _490  and  _492
REMARK  195  A    between atoms: _492  and  _493
REMARK  196  A    between atoms: _492  and  _495
REMARK  197  A    between atoms: _495  and  _496
REMARK  198  A    between atoms: _502  and  _504
REMARK  199  A    between atoms: _504  and  _505
REMARK  200  A    between atoms: _508  and  _510
REMARK  201  A    between atoms: _510  and  _511
REMARK  202  A    between atoms: _510  and  _513
REMARK  203  A    between atoms: _513  and  _514
REMARK  204  A    between atoms: _514  and  _515
REMARK  205  A    between atoms: _515  and  _516
REMARK  206  A    between atoms: _525  and  _527
REMARK  207  A    between atoms: _527  and  _528
REMARK  208  A    between atoms: _531  and  _533
REMARK  209  A    between atoms: _533  and  _534
REMARK  210  A    between atoms: _536  and  _538
REMARK  211  A    between atoms: _538  and  _539
REMARK  212  A    between atoms: _538  and  _541
REMARK  213  A    between atoms: _541  and  _542
REMARK  214  A    between atoms: _552  and  _554
REMARK  215  A    between atoms: _554  and  _555
REMARK  216  A    between atoms: _554  and  _557
REMARK  217  A    between atoms: _557  and  _558
REMARK  218  A    between atoms: _559  and  _561
REMARK  219  A    between atoms: _561  and  _562
REMARK  220  A    between atoms: _565  and  _567
REMARK  221  A    between atoms: _567  and  _568
REMARK  222  A    between atoms: _567  and  _570
REMARK  223  A    between atoms: _570  and  _571
REMARK  224  A    between atoms: _574  and  _576
REMARK  225  A    between atoms: _576  and  _577
REMARK  226  A    between atoms: _576  and  _579
REMARK  227  A    between atoms: _579  and  _580
REMARK  228  A    between atoms: _585  and  _586
REMARK  229  A    between atoms: _588  and  _590
REMARK  230  A    between atoms: _590  and  _591
REMARK  231  A    between atoms: _590  and  _593
REMARK  232  A    between atoms: _593  and  _594
REMARK  233  A    between atoms: _596  and  _598
REMARK  234  A    between atoms: _598  and  _599
REMARK  235  A    between atoms: _598  and  _601
REMARK  236  A    between atoms: _601  and  _602
REMARK  237  A    between atoms: _608  and  _610
REMARK  238  A    between atoms: _610  and  _611
REMARK  239  A    between atoms: _610  and  _613
REMARK  240  A    between atoms: _613  and  _614
REMARK  241  A    between atoms: _617  and  _619
REMARK  242  A    between atoms: _619  and  _620
REMARK  243  A    between atoms: _619  and  _622
REMARK  244  A    between atoms: _622  and  _623
REMARK  245  A    between atoms: _625  and  _627
REMARK  246  A    between atoms: _627  and  _628
REMARK  247  A    between atoms: _627  and  _630
REMARK  248  A    between atoms: _630  and  _631
REMARK  249  A    between atoms: _636  and  _638
REMARK  250  A    between atoms: _638  and  _639
REMARK  251  A    between atoms: _638  and  _641
REMARK  252  A    between atoms: _641  and  _642
REMARK  253  A    between atoms: _647  and  _649
REMARK  254  A    between atoms: _649  and  _650
REMARK  255  A    between atoms: _649  and  _652
REMARK  256  A    between atoms: _652  and  _653
REMARK  257  A    between atoms: _656  and  _658
REMARK  258  A    between atoms: _658  and  _659
REMARK  259  A    between atoms: _662  and  _664
REMARK  260  A    between atoms: _664  and  _665
REMARK  261  A    between atoms: _664  and  _667
REMARK  262  A    between atoms: _667  and  _668
REMARK  263  A    between atoms: _673  and  _674
REMARK  264  A    between atoms: _676  and  _678
REMARK  265  A    between atoms: _678  and  _679
REMARK  266  A    between atoms: _678  and  _681
REMARK  267  A    between atoms: _681  and  _682
REMARK  268  A    between atoms: _687  and  _688
REMARK  269  A    between atoms: _690  and  _692
REMARK  270  A    between atoms: _692  and  _693
REMARK  271  A    between atoms: _692  and  _695
REMARK  272  A    between atoms: _698  and  _700
REMARK  273  A    between atoms: _700  and  _701
REMARK  274  A    between atoms: _700  and  _703
REMARK  275  A    between atoms: _703  and  _704
REMARK  276  A    between atoms: _709  and  _711
REMARK  277  A    between atoms: _711  and  _712
REMARK  278  A    between atoms: _715  and  _717
REMARK  279  A    between atoms: _717  and  _718
REMARK  280  A    between atoms: _717  and  _720
REMARK  281  A    between atoms: _720  and  _721
REMARK  282  A    between atoms: _721  and  _722
REMARK  283  A    between atoms: _722  and  _723
REMARK  284  A    between atoms: _732  and  _734
REMARK  285  A    between atoms: _734  and  _735
REMARK  286  A    between atoms: _734  and  _737
REMARK  287  A    between atoms: _737  and  _738
REMARK  288  A    between atoms: _741  and  _743
REMARK  289  A    between atoms: _743  and  _744
REMARK  290  A    between atoms: _743  and  _746
REMARK  291  A    between atoms: _746  and  _747
REMARK  292  A    between atoms: _750  and  _752
REMARK  293  A    between atoms: _752  and  _753
REMARK  294  A    between atoms: _752  and  _755
REMARK  295  A    between atoms: _755  and  _756
REMARK  296  A    between atoms: _797  and  _800
REMARK                            x       y       z     vdW  Elec       q    Type
REMARK                         _______ _______ _______ _____ _____    ______ ____
ROOT
ATOM      1  O   HOH     1      11.134  28.791  15.968  0.00  0.00    +0.000 OA
ENDROOT
TORSDOF 0
REMARK  Name = ../refined-set-2016/1b1h/1b1h_pocket.pdb
REMARK  296 active torsions:
REMARK  status: ('A' for Active; 'I' for Inactive)
REMARK    1  A    between atoms: _1  and  _3
REMARK    2  A    between atoms: _3  and  _4
REMARK    3  A    between atoms: _3  and  _6
REMARK    4  A    between atoms: _6  and  _7
REMARK    5  A    between atoms: _12  and  _14
REMARK    6  A    between atoms: _14  and  _15
REMARK    7  A    between atoms: _17  and  _19
REMARK    8  A    between atoms: _19  and  _20
REMARK    9  A    between atoms: _19  and  _22
REMARK   10  A    between atoms: _22  and  _23
REMARK   11  A    between atoms: _25  and  _27
REMARK   12  A    between atoms: _27  and  _28
REMARK   13  A    between atoms: _27  and  _30
REMARK   14  A    between atoms: _30  and  _31
REMARK   15  A    between atoms: _31  and  _32
REMARK   16  A    between atoms: _37  and  _39
REMARK   17  A    between atoms: _39  and  _40
REMARK   18  A    between atoms: _39  and  _42
REMARK   19  A    between atoms: _42  and  _43
REMARK   20  A    between atoms: _46  and  _48
REMARK   21  A    between atoms: _48  and  _49
REMARK   22  A    between atoms: _48  and  _51
REMARK   23  A    between atoms: _51  and  _52
REMARK   24  A    between atoms: _52  and  _53
REMARK   25  A    between atoms: _56  and  _58
REMARK   26  A    between atoms: _58  and  _59
REMARK   27  A    between atoms: _61  and  _63
REMARK   28  A    between atoms: _63  and  _64
REMARK   29  A    between atoms: _63  and  _66
REMARK   30  A    between atoms: _70  and  _71
REMARK   31  A    between atoms: _76  and  _78
REMARK   32  A    between atoms: _78  and  _79
REMARK   33  A    between atoms: _78  and  _81
REMARK   34  A    between atoms: _81  and  _82
REMARK   35  A    between atoms: _82  and  _83
REMARK   36  A    between atoms: _86  and  _88
REMARK   37  A    between atoms: _88  and  _89
REMARK   38  A    between atoms: _88  and  _91
REMARK   39  A    between atoms: _91  and  _92
REMARK   40  A    between atoms: _94  and  _96
REMARK   41  A    between atoms: _96  and  _97
REMARK   42  A    between atoms: _96  and  _99
REMARK   43  A    between atoms: _99  and  _100
REMARK   44  A    between atoms: _105  and  _107
REMARK   45  A    between atoms: _107  and  _108
REMARK   46  A    between atoms: _107  and  _110
REMARK   47  A    between atoms: _110  and  _111
REMARK   48  A    between atoms: _111  and  _112
REMARK   49  A    between atoms: _112  and  _113
REMARK   50  A    between atoms: _123  and  _124
REMARK   51  A    between atoms: _129  and  _131
REMARK   52  A    between atoms: _131  and  _132
REMARK   53  A    between atoms: _131  and  _134
REMARK   54  A    between atoms: _134  and  _135
REMARK   55  A    between atoms: _140  and  _141
REMARK   56  A    between atoms: _143  and  _145
REMARK   57  A    between atoms: _145  and  _146
REMARK   58  A    between atoms: _145  and  _148
REMARK   59  A    between atoms: _148  and  _149
REMARK   60  A    between atoms: _154  and  _155
REMARK   61  A    between atoms: _157  and  _159
REMARK   62  A    between atoms: _159  and  _160
REMARK   63  A    between atoms: _159  and  _162
REMARK   64  A    between atoms: _165  and  _167
REMARK   65  A    between atoms: _167  and  _168
REMARK   66  A    between atoms: _167  and  _170
REMARK   67  A    between atoms: _170  and  _171
REMARK   68  A    between atoms: _177  and  _178
REMARK   69  A    between atoms: _183  and  _185
REMARK   70  A    between atoms: _185  and  _186
REMARK   71  A    between atoms: _185  and  _188
REMARK   72  A    between atoms: _188  and  _189
REMARK   73  A    between atoms: _191  and  _193
REMARK   74  A    between atoms: _193  and  _194
REMARK   75  A    between atoms: _193  and  _196
REMARK   76  A    between atoms: _196  and  _197
REMARK   77  A    between atoms: _197  and  _198
REMARK   78  A    between atoms: _201  and  _203
REMARK   79  A    between atoms: _203  and  _204
REMARK   80  A    between atoms: _203  and  _206
REMARK   81  A    between atoms: _206  and  _207
REMARK   82  A    between atoms: _212  and  _213
REMARK   83  A    between atoms: _215  and  _217
REMARK   84  A    between atoms: _217  and  _218
REMARK   85  A    between atoms: _217  and  _220
REMARK   86  A    between atoms: _220  and  _221
REMARK   87  A    between atoms: _226  and  _228
REMARK   88  A    between atoms: _228  and  _229
REMARK   89  A    between atoms: _228  and  _231
REMARK   90  A    between atoms: _231  and  _232
REMARK   91  A    between atoms: _237  and  _239
REMARK   92  A    between atoms: _239  and  _240
REMARK   93  A    between atoms: _239  and  _242
REMARK   94  A    between atoms: _242  and  _243
REMARK   95  A    between atoms: _243  and  _244
REMARK   96  A    between atoms: _246  and  _248
REMARK   97  A    between atoms: _248  and  _249
REMARK   98  A    between atoms: _248  and  _251
REMARK   99  A    between atoms: _251  and  _252
REMARK  100  A    between atoms: _257  and  _258
REMARK  101  A    between atoms: _260  and  _262
REMARK  102  A    between atoms: _262  and  _263
REMARK  103  A    between atoms: _262  and  _265
REMARK  104  A    between atoms: _265  and  _266
REMARK  105  A    between atoms: _269  and  _271
REMARK  106  A    between atoms: _271  and  _272
REMARK  107  A    between atoms: _271  and  _274
REMARK  108  A    between atoms: _274  and  _275
REMARK  109  A    between atoms: _275  and  _558
REMARK  110  A    between atoms: _276  and  _278
REMARK  111  A    between atoms: _278  and  _279
REMARK  112  A    between atoms: _278  and  _281
REMARK  113  A    between atoms: _281  and  _282
REMARK  114  A    between atoms: _285  and  _287
REMARK  115  A    between atoms: _287  and  _288
REMARK  116  A    between atoms: _287  and  _290
REMARK  117  A    between atoms: _290  and  _291
REMARK  118  A    between atoms: _296  and  _297
REMARK  119  A    between atoms: _299  and  _301
REMARK  120  A    between atoms: _301  and  _302
REMARK  121  A    between atoms: _301  and  _304
REMARK  122  A    between atoms: _304  and  _305
REMARK  123  A    between atoms: _310  and  _311
REMARK  124  A    between atoms: _313  and  _315
REMARK  125  A    between atoms: _315  and  _316
REMARK  126  A    between atoms: _315  and  _318
REMARK  127  A    between atoms: _318  and  _319
REMARK  128  A    between atoms: _319  and  _320
REMARK  129  A    between atoms: _323  and  _325
REMARK  130  A    between atoms: _325  and  _326
REMARK  131  A    between atoms: _325  and  _328
REMARK  132  A    between atoms: _328  and  _329
REMARK  133  A    between atoms: _334  and  _335
REMARK  134  A    between atoms: _337  and  _339
REMARK  135  A    between atoms: _339  and  _340
REMARK  136  A    between atoms: _339  and  _342
REMARK  137  A    between atoms: _342  and  _343
REMARK  138  A    between atoms: _348  and  _350
REMARK  139  A    between atoms: _350  and  _351
REMARK  140  A    between atoms: _350  and  _353
REMARK  141  A    between atoms: _353  and  _354
REMARK  142  A    between atoms: _357  and  _359
REMARK  143  A    between atoms: _359  and  _360
REMARK  144  A    between atoms: _359  and  _362
REMARK  145  A    between atoms: _362  and  _363
REMARK  146  A    between atoms: _368  and  _370
REMARK  147  A    between atoms: _370  and  _371
REMARK  148  A    between atoms: _370  and  _373
REMARK  149  A    between atoms: _373  and  _374
REMARK  150  A    between atoms: _384  and  _386
REMARK  151  A    between atoms: _386  and  _387
REMARK  152  A    between atoms: _386  and  _389
REMARK  153  A    between atoms: _389  and  _390
REMARK  154  A    between atoms: _390  and  _391
REMARK  155  A    between atoms: _391  and  _392
REMARK  156  A    between atoms: _392  and  _393
REMARK  157  A    between atoms: _397  and  _399
REMARK  158  A    between atoms: _399  and  _400
REMARK  159  A    between atoms: _399  and  _402
REMARK  160  A    between atoms: _402  and  _403
REMARK  161  A    between atoms: _406  and  _408
REMARK  162  A    between atoms: _408  and  _409
REMARK  163  A    between atoms: _408  and  _411
REMARK  164  A    between atoms: _411  and  _412
REMARK  165  A    between atoms: _418  and  _420
REMARK  166  A    between atoms: _420  and  _421
REMARK  167  A    between atoms: _420  and  _423
REMARK  168  A    between atoms: _423  and  _424
REMARK  169  A    between atoms: _427  and  _429
REMARK  170  A    between atoms: _429  and  _430
REMARK  171  A    between atoms: _429  and  _432
REMARK  172  A    between atoms: _432  and  _433
REMARK  173  A    between atoms: _436  and  _438
REMARK  174  A    between atoms: _438  and  _439
REMARK  175  A    between atoms: _438  and  _441
REMARK  176  A    between atoms: _441  and  _442
REMARK  177  A    between atoms: _445  and  _447
REMARK  178  A    between atoms: _447  and  _448
REMARK  179  A    between atoms: _447  and  _450
REMARK  180  A    between atoms: _450  and  _451
REMARK  181  A    between atoms: _451  and  _452
REMARK  182  A    between atoms: _452  and  _453
REMARK  183  A    between atoms: _462  and  _464
REMARK  184  A    between atoms: _464  and  _465
REMARK  185  A    between atoms: _464  and  _467
REMARK  186  A    between atoms: _467  and  _468
REMARK  187  A    between atoms: _473  and  _475
REMARK  188  A    between atoms: _475  and  _476
REMARK  189  A    between atoms: _475  and  _478
REMARK  190  A    between atoms: _478  and  _479
REMARK  191  A    between atoms: _479  and  _480
REMARK  192  A    between atoms: _485  and  _487
REMARK  193  A    between atoms: _487  and  _488
REMARK  194  A    between atoms: _490  and  _492
REMARK  195  A    between atoms: _492  and  _493
REMARK  196  A    between atoms: _492  and  _495
REMARK  197  A    between atoms: _495  and  _496
REMARK  198  A    between atoms: _502  and  _504
REMARK  199  A    between atoms: _504  and  _505
REMARK  200  A    between atoms: _508  and  _510
REMARK  201  A    between atoms: _510  and  _511
REMARK  202  A    between atoms: _510  and  _513
REMARK  203  A    between atoms: _513  and  _514
REMARK  204  A    between atoms: _514  and  _515
REMARK  205  A    between atoms: _515  and  _516
REMARK  206  A    between atoms: _525  and  _527
REMARK  207  A    between atoms: _527  and  _528
REMARK  208  A    between atoms: _531  and  _533
REMARK  209  A    between atoms: _533  and  _534
REMARK  210  A    between atoms: _536  and  _538
REMARK  211  A    between atoms: _538  and  _539
REMARK  212  A    between atoms: _538  and  _541
REMARK  213  A    between atoms: _541  and  _542
REMARK  214  A    between atoms: _552  and  _554
REMARK  215  A    between atoms: _554  and  _555
REMARK  216  A    between atoms: _554  and  _557
REMARK  217  A    between atoms: _557  and  _558
REMARK  218  A    between atoms: _559  and  _561
REMARK  219  A    between atoms: _561  and  _562
REMARK  220  A    between atoms: _565  and  _567
REMARK  221  A    between atoms: _567  and  _568
REMARK  222  A    between atoms: _567  and  _570
REMARK  223  A    between atoms: _570  and  _571
REMARK  224  A    between atoms: _574  and  _576
REMARK  225  A    between atoms: _576  and  _577
REMARK  226  A    between atoms: _576  and  _579
REMARK  227  A    between atoms: _579  and  _580
REMARK  228  A    between atoms: _585  and  _586
REMARK  229  A    between atoms: _588  and  _590
REMARK  230  A    between atoms: _590  and  _591
REMARK  231  A    between atoms: _590  and  _593
REMARK  232  A    between atoms: _593  and  _594
REMARK  233  A    between atoms: _596  and  _598
REMARK  234  A    between atoms: _598  and  _599
REMARK  235  A    between atoms: _598  and  _601
REMARK  236  A    between atoms: _601  and  _602
REMARK  237  A    between atoms: _608  and  _610
REMARK  238  A    between atoms: _610  and  _611
REMARK  239  A    between atoms: _610  and  _613
REMARK  240  A    between atoms: _613  and  _614
REMARK  241  A    between atoms: _617  and  _619
REMARK  242  A    between atoms: _619  and  _620
REMARK  243  A    between atoms: _619  and  _622
REMARK  244  A    between atoms: _622  and  _623
REMARK  245  A    between atoms: _625  and  _627
REMARK  246  A    between atoms: _627  and  _628
REMARK  247  A    between atoms: _627  and  _630
REMARK  248  A    between atoms: _630  and  _631
REMARK  249  A    between atoms: _636  and  _638
REMARK  250  A    between atoms: _638  and  _639
REMARK  251  A    between atoms: _638  and  _641
REMARK  252  A    between atoms: _641  and  _642
REMARK  253  A    between atoms: _647  and  _649
REMARK  254  A    between atoms: _649  and  _650
REMARK  255  A    between atoms: _649  and  _652
REMARK  256  A    between atoms: _652  and  _653
REMARK  257  A    between atoms: _656  and  _658
REMARK  258  A    between atoms: _658  and  _659
REMARK  259  A    between atoms: _662  and  _664
REMARK  260  A    between atoms: _664  and  _665
REMARK  261  A    between atoms: _664  and  _667
REMARK  262  A    between atoms: _667  and  _668
REMARK  263  A    between atoms: _673  and  _674
REMARK  264  A    between atoms: _676  and  _678
REMARK  265  A    between atoms: _678  and  _679
REMARK  266  A    between atoms: _678  and  _681
REMARK  267  A    between atoms: _681  and  _682
REMARK  268  A    between atoms: _687  and  _688
REMARK  269  A    between atoms: _690  and  _692
REMARK  270  A    between atoms: _692  and  _693
REMARK  271  A    between atoms: _692  and  _695
REMARK  272  A    between atoms: _698  and  _700
REMARK  273  A    between atoms: _700  and  _701
REMARK  274  A    between atoms: _700  and  _703
REMARK  275  A    between atoms: _703  and  _704
REMARK  276  A    between atoms: _709  and  _711
REMARK  277  A    between atoms: _711  and  _712
REMARK  278  A    between atoms: _715  and  _717
REMARK  279  A    between atoms: _717  and  _718
REMARK  280  A    between atoms: _717  and  _720
REMARK  281  A    between atoms: _720  and  _721
REMARK  282  A    between atoms: _721  and  _722
REMARK  283  A    between atoms: _722  and  _723
REMARK  284  A    between atoms: _732  and  _734
REMARK  285  A    between atoms: _734  and  _735
REMARK  286  A    between atoms: _734  and  _737
REMARK  287  A    between atoms: _737  and  _738
REMARK  288  A    between atoms: _741  and  _743
REMARK  289  A    between atoms: _743  and  _744
REMARK  290  A    between atoms: _743  and  _746
REMARK  291  A    between atoms: _746  and  _747
REMARK  292  A    between atoms: _750  and  _752
REMARK  293  A    between atoms: _752  and  _753
REMARK  294  A    between atoms: _752  and  _755
REMARK  295  A    between atoms: _755  and  _756
REMARK  296  A    between atoms: _797  and  _800
REMARK                            x       y       z     vdW  Elec       q    Type
REMARK                         _______ _______ _______ _____ _____    ______ ____
ROOT
ATOM      1  O   HOH     1      -2.424  24.462  11.964  0.00  0.00    +0.000 OA
ENDROOT
TORSDOF 0
REMARK  Name = ../refined-set-2016/1b1h/1b1h_pocket.pdb
REMARK  296 active torsions:
REMARK  status: ('A' for Active; 'I' for Inactive)
REMARK    1  A    between atoms: _1  and  _3
REMARK    2  A    between atoms: _3  and  _4
REMARK    3  A    between atoms: _3  and  _6
REMARK    4  A    between atoms: _6  and  _7
REMARK    5  A    between atoms: _12  and  _14
REMARK    6  A    between atoms: _14  and  _15
REMARK    7  A    between atoms: _17  and  _19
REMARK    8  A    between atoms: _19  and  _20
REMARK    9  A    between atoms: _19  and  _22
REMARK   10  A    between atoms: _22  and  _23
REMARK   11  A    between atoms: _25  and  _27
REMARK   12  A    between atoms: _27  and  _28
REMARK   13  A    between atoms: _27  and  _30
REMARK   14  A    between atoms: _30  and  _31
REMARK   15  A    between atoms: _31  and  _32
REMARK   16  A    between atoms: _37  and  _39
REMARK   17  A    between atoms: _39  and  _40
REMARK   18  A    between atoms: _39  and  _42
REMARK   19  A    between atoms: _42  and  _43
REMARK   20  A    between atoms: _46  and  _48
REMARK   21  A    between atoms: _48  and  _49
REMARK   22  A    between atoms: _48  and  _51
REMARK   23  A    between atoms: _51  and  _52
REMARK   24  A    between atoms: _52  and  _53
REMARK   25  A    between atoms: _56  and  _58
REMARK   26  A    between atoms: _58  and  _59
REMARK   27  A    between atoms: _61  and  _63
REMARK   28  A    between atoms: _63  and  _64
REMARK   29  A    between atoms: _63  and  _66
REMARK   30  A    between atoms: _70  and  _71
REMARK   31  A    between atoms: _76  and  _78
REMARK   32  A    between atoms: _78  and  _79
REMARK   33  A    between atoms: _78  and  _81
REMARK   34  A    between atoms: _81  and  _82
REMARK   35  A    between atoms: _82  and  _83
REMARK   36  A    between atoms: _86  and  _88
REMARK   37  A    between atoms: _88  and  _89
REMARK   38  A    between atoms: _88  and  _91
REMARK   39  A    between atoms: _91  and  _92
REMARK   40  A    between atoms: _94  and  _96
REMARK   41  A    between atoms: _96  and  _97
REMARK   42  A    between atoms: _96  and  _99
REMARK   43  A    between atoms: _99  and  _100
REMARK   44  A    between atoms: _105  and  _107
REMARK   45  A    between atoms: _107  and  _108
REMARK   46  A    between atoms: _107  and  _110
REMARK   47  A    between atoms: _110  and  _111
REMARK   48  A    between atoms: _111  and  _112
REMARK   49  A    between atoms: _112  and  _113
REMARK   50  A    between atoms: _123  and  _124
REMARK   51  A    between atoms: _129  and  _131
REMARK   52  A    between atoms: _131  and  _132
REMARK   53  A    between atoms: _131  and  _134
REMARK   54  A    between atoms: _134  and  _135
REMARK   55  A    between atoms: _140  and  _141
REMARK   56  A    between atoms: _143  and  _145
REMARK   57  A    between atoms: _145  and  _146
REMARK   58  A    between atoms: _145  and  _148
REMARK   59  A    between atoms: _148  and  _149
REMARK   60  A    between atoms: _154  and  _155
REMARK   61  A    between atoms: _157  and  _159
REMARK   62  A    between atoms: _159  and  _160
REMARK   63  A    between atoms: _159  and  _162
REMARK   64  A    between atoms: _165  and  _167
REMARK   65  A    between atoms: _167  and  _168
REMARK   66  A    between atoms: _167  and  _170
REMARK   67  A    between atoms: _170  and  _171
REMARK   68  A    between atoms: _177  and  _178
REMARK   69  A    between atoms: _183  and  _185
REMARK   70  A    between atoms: _185  and  _186
REMARK   71  A    between atoms: _185  and  _188
REMARK   72  A    between atoms: _188  and  _189
REMARK   73  A    between atoms: _191  and  _193
REMARK   74  A    between atoms: _193  and  _194
REMARK   75  A    between atoms: _193  and  _196
REMARK   76  A    between atoms: _196  and  _197
REMARK   77  A    between atoms: _197  and  _198
REMARK   78  A    between atoms: _201  and  _203
REMARK   79  A    between atoms: _203  and  _204
REMARK   80  A    between atoms: _203  and  _206
REMARK   81  A    between atoms: _206  and  _207
REMARK   82  A    between atoms: _212  and  _213
REMARK   83  A    between atoms: _215  and  _217
REMARK   84  A    between atoms: _217  and  _218
REMARK   85  A    between atoms: _217  and  _220
REMARK   86  A    between atoms: _220  and  _221
REMARK   87  A    between atoms: _226  and  _228
REMARK   88  A    between atoms: _228  and  _229
REMARK   89  A    between atoms: _228  and  _231
REMARK   90  A    between atoms: _231  and  _232
REMARK   91  A    between atoms: _237  and  _239
REMARK   92  A    between atoms: _239  and  _240
REMARK   93  A    between atoms: _239  and  _242
REMARK   94  A    between atoms: _242  and  _243
REMARK   95  A    between atoms: _243  and  _244
REMARK   96  A    between atoms: _246  and  _248
REMARK   97  A    between atoms: _248  and  _249
REMARK   98  A    between atoms: _248  and  _251
REMARK   99  A    between atoms: _251  and  _252
REMARK  100  A    between atoms: _257  and  _258
REMARK  101  A    between atoms: _260  and  _262
REMARK  102  A    between atoms: _262  and  _263
REMARK  103  A    between atoms: _262  and  _265
REMARK  104  A    between atoms: _265  and  _266
REMARK  105  A    between atoms: _269  and  _271
REMARK  106  A    between atoms: _271  and  _272
REMARK  107  A    between atoms: _271  and  _274
REMARK  108  A    between atoms: _274  and  _275
REMARK  109  A    between atoms: _275  and  _558
REMARK  110  A    between atoms: _276  and  _278
REMARK  111  A    between atoms: _278  and  _279
REMARK  112  A    between atoms: _278  and  _281
REMARK  113  A    between atoms: _281  and  _282
REMARK  114  A    between atoms: _285  and  _287
REMARK  115  A    between atoms: _287  and  _288
REMARK  116  A    between atoms: _287  and  _290
REMARK  117  A    between atoms: _290  and  _291
REMARK  118  A    between atoms: _296  and  _297
REMARK  119  A    between atoms: _299  and  _301
REMARK  120  A    between atoms: _301  and  _302
REMARK  121  A    between atoms: _301  and  _304
REMARK  122  A    between atoms: _304  and  _305
REMARK  123  A    between atoms: _310  and  _311
REMARK  124  A    between atoms: _313  and  _315
REMARK  125  A    between atoms: _315  and  _316
REMARK  126  A    between atoms: _315  and  _318
REMARK  127  A    between atoms: _318  and  _319
REMARK  128  A    between atoms: _319  and  _320
REMARK  129  A    between atoms: _323  and  _325
REMARK  130  A    between atoms: _325  and  _326
REMARK  131  A    between atoms: _325  and  _328
REMARK  132  A    between atoms: _328  and  _329
REMARK  133  A    between atoms: _334  and  _335
REMARK  134  A    between atoms: _337  and  _339
REMARK  135  A    between atoms: _339  and  _340
REMARK  136  A    between atoms: _339  and  _342
REMARK  137  A    between atoms: _342  and  _343
REMARK  138  A    between atoms: _348  and  _350
REMARK  139  A    between atoms: _350  and  _351
REMARK  140  A    between atoms: _350  and  _353
REMARK  141  A    between atoms: _353  and  _354
REMARK  142  A    between atoms: _357  and  _359
REMARK  143  A    between atoms: _359  and  _360
REMARK  144  A    between atoms: _359  and  _362
REMARK  145  A    between atoms: _362  and  _363
REMARK  146  A    between atoms: _368  and  _370
REMARK  147  A    between atoms: _370  and  _371
REMARK  148  A    between atoms: _370  and  _373
REMARK  149  A    between atoms: _373  and  _374
REMARK  150  A    between atoms: _384  and  _386
REMARK  151  A    between atoms: _386  and  _387
REMARK  152  A    between atoms: _386  and  _389
REMARK  153  A    between atoms: _389  and  _390
REMARK  154  A    between atoms: _390  and  _391
REMARK  155  A    between atoms: _391  and  _392
REMARK  156  A    between atoms: _392  and  _393
REMARK  157  A    between atoms: _397  and  _399
REMARK  158  A    between atoms: _399  and  _400
REMARK  159  A    between atoms: _399  and  _402
REMARK  160  A    between atoms: _402  and  _403
REMARK  161  A    between atoms: _406  and  _408
REMARK  162  A    between atoms: _408  and  _409
REMARK  163  A    between atoms: _408  and  _411
REMARK  164  A    between atoms: _411  and  _412
REMARK  165  A    between atoms: _418  and  _420
REMARK  166  A    between atoms: _420  and  _421
REMARK  167  A    between atoms: _420  and  _423
REMARK  168  A    between atoms: _423  and  _424
REMARK  169  A    between atoms: _427  and  _429
REMARK  170  A    between atoms: _429  and  _430
REMARK  171  A    between atoms: _429  and  _432
REMARK  172  A    between atoms: _432  and  _433
REMARK  173  A    between atoms: _436  and  _438
REMARK  174  A    between atoms: _438  and  _439
REMARK  175  A    between atoms: _438  and  _441
REMARK  176  A    between atoms: _441  and  _442
REMARK  177  A    between atoms: _445  and  _447
REMARK  178  A    between atoms: _447  and  _448
REMARK  179  A    between atoms: _447  and  _450
REMARK  180  A    between atoms: _450  and  _451
REMARK  181  A    between atoms: _451  and  _452
REMARK  182  A    between atoms: _452  and  _453
REMARK  183  A    between atoms: _462  and  _464
REMARK  184  A    between atoms: _464  and  _465
REMARK  185  A    between atoms: _464  and  _467
REMARK  186  A    between atoms: _467  and  _468
REMARK  187  A    between atoms: _473  and  _475
REMARK  188  A    between atoms: _475  and  _476
REMARK  189  A    between atoms: _475  and  _478
REMARK  190  A    between atoms: _478  and  _479
REMARK  191  A    between atoms: _479  and  _480
REMARK  192  A    between atoms: _485  and  _487
REMARK  193  A    between atoms: _487  and  _488
REMARK  194  A    between atoms: _490  and  _492
REMARK  195  A    between atoms: _492  and  _493
REMARK  196  A    between atoms: _492  and  _495
REMARK  197  A    between atoms: _495  and  _496
REMARK  198  A    between atoms: _502  and  _504
REMARK  199  A    between atoms: _504  and  _505
REMARK  200  A    between atoms: _508  and  _510
REMARK  201  A    between atoms: _510  and  _511
REMARK  202  A    between atoms: _510  and  _513
REMARK  203  A    between atoms: _513  and  _514
REMARK  204  A    between atoms: _514  and  _515
REMARK  205  A    between atoms: _515  and  _516
REMARK  206  A    between atoms: _525  and  _527
REMARK  207  A    between atoms: _527  and  _528
REMARK  208  A    between atoms: _531  and  _533
REMARK  209  A    between atoms: _533  and  _534
REMARK  210  A    between atoms: _536  and  _538
REMARK  211  A    between atoms: _538  and  _539
REMARK  212  A    between atoms: _538  and  _541
REMARK  213  A    between atoms: _541  and  _542
REMARK  214  A    between atoms: _552  and  _554
REMARK  215  A    between atoms: _554  and  _555
REMARK  216  A    between atoms: _554  and  _557
REMARK  217  A    between atoms: _557  and  _558
REMARK  218  A    between atoms: _559  and  _561
REMARK  219  A    between atoms: _561  and  _562
REMARK  220  A    between atoms: _565  and  _567
REMARK  221  A    between atoms: _567  and  _568
REMARK  222  A    between atoms: _567  and  _570
REMARK  223  A    between atoms: _570  and  _571
REMARK  224  A    between atoms: _574  and  _576
REMARK  225  A    between atoms: _576  and  _577
REMARK  226  A    between atoms: _576  and  _579
REMARK  227  A    between atoms: _579  and  _580
REMARK  228  A    between atoms: _585  and  _586
REMARK  229  A    between atoms: _588  and  _590
REMARK  230  A    between atoms: _590  and  _591
REMARK  231  A    between atoms: _590  and  _593
REMARK  232  A    between atoms: _593  and  _594
REMARK  233  A    between atoms: _596  and  _598
REMARK  234  A    between atoms: _598  and  _599
REMARK  235  A    between atoms: _598  and  _601
REMARK  236  A    between atoms: _601  and  _602
REMARK  237  A    between atoms: _608  and  _610
REMARK  238  A    between atoms: _610  and  _611
REMARK  239  A    between atoms: _610  and  _613
REMARK  240  A    between atoms: _613  and  _614
REMARK  241  A    between atoms: _617  and  _619
REMARK  242  A    between atoms: _619  and  _620
REMARK  243  A    between atoms: _619  and  _622
REMARK  244  A    between atoms: _622  and  _623
REMARK  245  A    between atoms: _625  and  _627
REMARK  246  A    between atoms: _627  and  _628
REMARK  247  A    between atoms: _627  and  _630
REMARK  248  A    between atoms: _630  and  _631
REMARK  249  A    between atoms: _636  and  _638
REMARK  250  A    between atoms: _638  and  _639
REMARK  251  A    between atoms: _638  and  _641
REMARK  252  A    between atoms: _641  and  _642
REMARK  253  A    between atoms: _647  and  _649
REMARK  254  A    between atoms: _649  and  _650
REMARK  255  A    between atoms: _649  and  _652
REMARK  256  A    between atoms: _652  and  _653
REMARK  257  A    between atoms: _656  and  _658
REMARK  258  A    between atoms: _658  and  _659
REMARK  259  A    between atoms: _662  and  _664
REMARK  260  A    between atoms: _664  and  _665
REMARK  261  A    between atoms: _664  and  _667
REMARK  262  A    between atoms: _667  and  _668
REMARK  263  A    between atoms: _673  and  _674
REMARK  264  A    between atoms: _676  and  _678
REMARK  265  A    between atoms: _678  and  _679
REMARK  266  A    between atoms: _678  and  _681
REMARK  267  A    between atoms: _681  and  _682
REMARK  268  A    between atoms: _687  and  _688
REMARK  269  A    between atoms: _690  and  _692
REMARK  270  A    between atoms: _692  and  _693
REMARK  271  A    between atoms: _692  and  _695
REMARK  272  A    between atoms: _698  and  _700
REMARK  273  A    between atoms: _700  and  _701
REMARK  274  A    between atoms: _700  and  _703
REMARK  275  A    between atoms: _703  and  _704
REMARK  276  A    between atoms: _709  and  _711
REMARK  277  A    between atoms: _711  and  _712
REMARK  278  A    between atoms: _715  and  _717
REMARK  279  A    between atoms: _717  and  _718
REMARK  280  A    between atoms: _717  and  _720
REMARK  281  A    between atoms: _720  and  _721
REMARK  282  A    between atoms: _721  and  _722
REMARK  283  A    between atoms: _722  and  _723
REMARK  284  A    between atoms: _732  and  _734
REMARK  285  A    between atoms: _734  and  _735
REMARK  286  A    between atoms: _734  and  _737
REMARK  287  A    between atoms: _737  and  _738
REMARK  288  A    between atoms: _741  and  _743
REMARK  289  A    between atoms: _743  and  _744
REMARK  290  A    between atoms: _743  and  _746
REMARK  291  A    between atoms: _746  and  _747
REMARK  292  A    between atoms: _750  and  _752
REMARK  293  A    between atoms: _752  and  _753
REMARK  294  A    between atoms: _752  and  _755
REMARK  295  A    between atoms: _755  and  _756
REMARK  296  A    between atoms: _797  and  _800
REMARK                            x       y       z     vdW  Elec       q    Type
REMARK                         _______ _______ _______ _____ _____    ______ ____
ROOT
ATOM      1  O   HOH     1       8.787  13.446   7.186  0.00  0.00    +0.000 OA
ENDROOT
TORSDOF 0
REMARK  Name = ../refined-set-2016/1b1h/1b1h_pocket.pdb
REMARK  296 active torsions:
REMARK  status: ('A' for Active; 'I' for Inactive)
REMARK    1  A    between atoms: _1  and  _3
REMARK    2  A    between atoms: _3  and  _4
REMARK    3  A    between atoms: _3  and  _6
REMARK    4  A    between atoms: _6  and  _7
REMARK    5  A    between atoms: _12  and  _14
REMARK    6  A    between atoms: _14  and  _15
REMARK    7  A    between atoms: _17  and  _19
REMARK    8  A    between atoms: _19  and  _20
REMARK    9  A    between atoms: _19  and  _22
REMARK   10  A    between atoms: _22  and  _23
REMARK   11  A    between atoms: _25  and  _27
REMARK   12  A    between atoms: _27  and  _28
REMARK   13  A    between atoms: _27  and  _30
REMARK   14  A    between atoms: _30  and  _31
REMARK   15  A    between atoms: _31  and  _32
REMARK   16  A    between atoms: _37  and  _39
REMARK   17  A    between atoms: _39  and  _40
REMARK   18  A    between atoms: _39  and  _42
REMARK   19  A    between atoms: _42  and  _43
REMARK   20  A    between atoms: _46  and  _48
REMARK   21  A    between atoms: _48  and  _49
REMARK   22  A    between atoms: _48  and  _51
REMARK   23  A    between atoms: _51  and  _52
REMARK   24  A    between atoms: _52  and  _53
REMARK   25  A    between atoms: _56  and  _58
REMARK   26  A    between atoms: _58  and  _59
REMARK   27  A    between atoms: _61  and  _63
REMARK   28  A    between atoms: _63  and  _64
REMARK   29  A    between atoms: _63  and  _66
REMARK   30  A    between atoms: _70  and  _71
REMARK   31  A    between atoms: _76  and  _78
REMARK   32  A    between atoms: _78  and  _79
REMARK   33  A    between atoms: _78  and  _81
REMARK   34  A    between atoms: _81  and  _82
REMARK   35  A    between atoms: _82  and  _83
REMARK   36  A    between atoms: _86  and  _88
REMARK   37  A    between atoms: _88  and  _89
REMARK   38  A    between atoms: _88  and  _91
REMARK   39  A    between atoms: _91  and  _92
REMARK   40  A    between atoms: _94  and  _96
REMARK   41  A    between atoms: _96  and  _97
REMARK   42  A    between atoms: _96  and  _99
REMARK   43  A    between atoms: _99  and  _100
REMARK   44  A    between atoms: _105  and  _107
REMARK   45  A    between atoms: _107  and  _108
REMARK   46  A    between atoms: _107  and  _110
REMARK   47  A    between atoms: _110  and  _111
REMARK   48  A    between atoms: _111  and  _112
REMARK   49  A    between atoms: _112  and  _113
REMARK   50  A    between atoms: _123  and  _124
REMARK   51  A    between atoms: _129  and  _131
REMARK   52  A    between atoms: _131  and  _132
REMARK   53  A    between atoms: _131  and  _134
REMARK   54  A    between atoms: _134  and  _135
REMARK   55  A    between atoms: _140  and  _141
REMARK   56  A    between atoms: _143  and  _145
REMARK   57  A    between atoms: _145  and  _146
REMARK   58  A    between atoms: _145  and  _148
REMARK   59  A    between atoms: _148  and  _149
REMARK   60  A    between atoms: _154  and  _155
REMARK   61  A    between atoms: _157  and  _159
REMARK   62  A    between atoms: _159  and  _160
REMARK   63  A    between atoms: _159  and  _162
REMARK   64  A    between atoms: _165  and  _167
REMARK   65  A    between atoms: _167  and  _168
REMARK   66  A    between atoms: _167  and  _170
REMARK   67  A    between atoms: _170  and  _171
REMARK   68  A    between atoms: _177  and  _178
REMARK   69  A    between atoms: _183  and  _185
REMARK   70  A    between atoms: _185  and  _186
REMARK   71  A    between atoms: _185  and  _188
REMARK   72  A    between atoms: _188  and  _189
REMARK   73  A    between atoms: _191  and  _193
REMARK   74  A    between atoms: _193  and  _194
REMARK   75  A    between atoms: _193  and  _196
REMARK   76  A    between atoms: _196  and  _197
REMARK   77  A    between atoms: _197  and  _198
REMARK   78  A    between atoms: _201  and  _203
REMARK   79  A    between atoms: _203  and  _204
REMARK   80  A    between atoms: _203  and  _206
REMARK   81  A    between atoms: _206  and  _207
REMARK   82  A    between atoms: _212  and  _213
REMARK   83  A    between atoms: _215  and  _217
REMARK   84  A    between atoms: _217  and  _218
REMARK   85  A    between atoms: _217  and  _220
REMARK   86  A    between atoms: _220  and  _221
REMARK   87  A    between atoms: _226  and  _228
REMARK   88  A    between atoms: _228  and  _229
REMARK   89  A    between atoms: _228  and  _231
REMARK   90  A    between atoms: _231  and  _232
REMARK   91  A    between atoms: _237  and  _239
REMARK   92  A    between atoms: _239  and  _240
REMARK   93  A    between atoms: _239  and  _242
REMARK   94  A    between atoms: _242  and  _243
REMARK   95  A    between atoms: _243  and  _244
REMARK   96  A    between atoms: _246  and  _248
REMARK   97  A    between atoms: _248  and  _249
REMARK   98  A    between atoms: _248  and  _251
REMARK   99  A    between atoms: _251  and  _252
REMARK  100  A    between atoms: _257  and  _258
REMARK  101  A    between atoms: _260  and  _262
REMARK  102  A    between atoms: _262  and  _263
REMARK  103  A    between atoms: _262  and  _265
REMARK  104  A    between atoms: _265  and  _266
REMARK  105  A    between atoms: _269  and  _271
REMARK  106  A    between atoms: _271  and  _272
REMARK  107  A    between atoms: _271  and  _274
REMARK  108  A    between atoms: _274  and  _275
REMARK  109  A    between atoms: _275  and  _558
REMARK  110  A    between atoms: _276  and  _278
REMARK  111  A    between atoms: _278  and  _279
REMARK  112  A    between atoms: _278  and  _281
REMARK  113  A    between atoms: _281  and  _282
REMARK  114  A    between atoms: _285  and  _287
REMARK  115  A    between atoms: _287  and  _288
REMARK  116  A    between atoms: _287  and  _290
REMARK  117  A    between atoms: _290  and  _291
REMARK  118  A    between atoms: _296  and  _297
REMARK  119  A    between atoms: _299  and  _301
REMARK  120  A    between atoms: _301  and  _302
REMARK  121  A    between atoms: _301  and  _304
REMARK  122  A    between atoms: _304  and  _305
REMARK  123  A    between atoms: _310  and  _311
REMARK  124  A    between atoms: _313  and  _315
REMARK  125  A    between atoms: _315  and  _316
REMARK  126  A    between atoms: _315  and  _318
REMARK  127  A    between atoms: _318  and  _319
REMARK  128  A    between atoms: _319  and  _320
REMARK  129  A    between atoms: _323  and  _325
REMARK  130  A    between atoms: _325  and  _326
REMARK  131  A    between atoms: _325  and  _328
REMARK  132  A    between atoms: _328  and  _329
REMARK  133  A    between atoms: _334  and  _335
REMARK  134  A    between atoms: _337  and  _339
REMARK  135  A    between atoms: _339  and  _340
REMARK  136  A    between atoms: _339  and  _342
REMARK  137  A    between atoms: _342  and  _343
REMARK  138  A    between atoms: _348  and  _350
REMARK  139  A    between atoms: _350  and  _351
REMARK  140  A    between atoms: _350  and  _353
REMARK  141  A    between atoms: _353  and  _354
REMARK  142  A    between atoms: _357  and  _359
REMARK  143  A    between atoms: _359  and  _360
REMARK  144  A    between atoms: _359  and  _362
REMARK  145  A    between atoms: _362  and  _363
REMARK  146  A    between atoms: _368  and  _370
REMARK  147  A    between atoms: _370  and  _371
REMARK  148  A    between atoms: _370  and  _373
REMARK  149  A    between atoms: _373  and  _374
REMARK  150  A    between atoms: _384  and  _386
REMARK  151  A    between atoms: _386  and  _387
REMARK  152  A    between atoms: _386  and  _389
REMARK  153  A    between atoms: _389  and  _390
REMARK  154  A    between atoms: _390  and  _391
REMARK  155  A    between atoms: _391  and  _392
REMARK  156  A    between atoms: _392  and  _393
REMARK  157  A    between atoms: _397  and  _399
REMARK  158  A    between atoms: _399  and  _400
REMARK  159  A    between atoms: _399  and  _402
REMARK  160  A    between atoms: _402  and  _403
REMARK  161  A    between atoms: _406  and  _408
REMARK  162  A    between atoms: _408  and  _409
REMARK  163  A    between atoms: _408  and  _411
REMARK  164  A    between atoms: _411  and  _412
REMARK  165  A    between atoms: _418  and  _420
REMARK  166  A    between atoms: _420  and  _421
REMARK  167  A    between atoms: _420  and  _423
REMARK  168  A    between atoms: _423  and  _424
REMARK  169  A    between atoms: _427  and  _429
REMARK  170  A    between atoms: _429  and  _430
REMARK  171  A    between atoms: _429  and  _432
REMARK  172  A    between atoms: _432  and  _433
REMARK  173  A    between atoms: _436  and  _438
REMARK  174  A    between atoms: _438  and  _439
REMARK  175  A    between atoms: _438  and  _441
REMARK  176  A    between atoms: _441  and  _442
REMARK  177  A    between atoms: _445  and  _447
REMARK  178  A    between atoms: _447  and  _448
REMARK  179  A    between atoms: _447  and  _450
REMARK  180  A    between atoms: _450  and  _451
REMARK  181  A    between atoms: _451  and  _452
REMARK  182  A    between atoms: _452  and  _453
REMARK  183  A    between atoms: _462  and  _464
REMARK  184  A    between atoms: _464  and  _465
REMARK  185  A    between atoms: _464  and  _467
REMARK  186  A    between atoms: _467  and  _468
REMARK  187  A    between atoms: _473  and  _475
REMARK  188  A    between atoms: _475  and  _476
REMARK  189  A    between atoms: _475  and  _478
REMARK  190  A    between atoms: _478  and  _479
REMARK  191  A    between atoms: _479  and  _480
REMARK  192  A    between atoms: _485  and  _487
REMARK  193  A    between atoms: _487  and  _488
REMARK  194  A    between atoms: _490  and  _492
REMARK  195  A    between atoms: _492  and  _493
REMARK  196  A    between atoms: _492  and  _495
REMARK  197  A    between atoms: _495  and  _496
REMARK  198  A    between atoms: _502  and  _504
REMARK  199  A    between atoms: _504  and  _505
REMARK  200  A    between atoms: _508  and  _510
REMARK  201  A    between atoms: _510  and  _511
REMARK  202  A    between atoms: _510  and  _513
REMARK  203  A    between atoms: _513  and  _514
REMARK  204  A    between atoms: _514  and  _515
REMARK  205  A    between atoms: _515  and  _516
REMARK  206  A    between atoms: _525  and  _527
REMARK  207  A    between atoms: _527  and  _528
REMARK  208  A    between atoms: _531  and  _533
REMARK  209  A    between atoms: _533  and  _534
REMARK  210  A    between atoms: _536  and  _538
REMARK  211  A    between atoms: _538  and  _539
REMARK  212  A    between atoms: _538  and  _541
REMARK  213  A    between atoms: _541  and  _542
REMARK  214  A    between atoms: _552  and  _554
REMARK  215  A    between atoms: _554  and  _555
REMARK  216  A    between atoms: _554  and  _557
REMARK  217  A    between atoms: _557  and  _558
REMARK  218  A    between atoms: _559  and  _561
REMARK  219  A    between atoms: _561  and  _562
REMARK  220  A    between atoms: _565  and  _567
REMARK  221  A    between atoms: _567  and  _568
REMARK  222  A    between atoms: _567  and  _570
REMARK  223  A    between atoms: _570  and  _571
REMARK  224  A    between atoms: _574  and  _576
REMARK  225  A    between atoms: _576  and  _577
REMARK  226  A    between atoms: _576  and  _579
REMARK  227  A    between atoms: _579  and  _580
REMARK  228  A    between atoms: _585  and  _586
REMARK  229  A    between atoms: _588  and  _590
REMARK  230  A    between atoms: _590  and  _591
REMARK  231  A    between atoms: _590  and  _593
REMARK  232  A    between atoms: _593  and  _594
REMARK  233  A    between atoms: _596  and  _598
REMARK  234  A    between atoms: _598  and  _599
REMARK  235  A    between atoms: _598  and  _601
REMARK  236  A    between atoms: _601  and  _602
REMARK  237  A    between atoms: _608  and  _610
REMARK  238  A    between atoms: _610  and  _611
REMARK  239  A    between atoms: _610  and  _613
REMARK  240  A    between atoms: _613  and  _614
REMARK  241  A    between atoms: _617  and  _619
REMARK  242  A    between atoms: _619  and  _620
REMARK  243  A    between atoms: _619  and  _622
REMARK  244  A    between atoms: _622  and  _623
REMARK  245  A    between atoms: _625  and  _627
REMARK  246  A    between atoms: _627  and  _628
REMARK  247  A    between atoms: _627  and  _630
REMARK  248  A    between atoms: _630  and  _631
REMARK  249  A    between atoms: _636  and  _638
REMARK  250  A    between atoms: _638  and  _639
REMARK  251  A    between atoms: _638  and  _641
REMARK  252  A    between atoms: _641  and  _642
REMARK  253  A    between atoms: _647  and  _649
REMARK  254  A    between atoms: _649  and  _650
REMARK  255  A    between atoms: _649  and  _652
REMARK  256  A    between atoms: _652  and  _653
REMARK  257  A    between atoms: _656  and  _658
REMARK  258  A    between atoms: _658  and  _659
REMARK  259  A    between atoms: _662  and  _664
REMARK  260  A    between atoms: _664  and  _665
REMARK  261  A    between atoms: _664  and  _667
REMARK  262  A    between atoms: _667  and  _668
REMARK  263  A    between atoms: _673  and  _674
REMARK  264  A    between atoms: _676  and  _678
REMARK  265  A    between atoms: _678  and  _679
REMARK  266  A    between atoms: _678  and  _681
REMARK  267  A    between atoms: _681  and  _682
REMARK  268  A    between atoms: _687  and  _688
REMARK  269  A    between atoms: _690  and  _692
REMARK  270  A    between atoms: _692  and  _693
REMARK  271  A    between atoms: _692  and  _695
REMARK  272  A    between atoms: _698  and  _700
REMARK  273  A    between atoms: _700  and  _701
REMARK  274  A    between atoms: _700  and  _703
REMARK  275  A    between atoms: _703  and  _704
REMARK  276  A    between atoms: _709  and  _711
REMARK  277  A    between atoms: _711  and  _712
REMARK  278  A    between atoms: _715  and  _717
REMARK  279  A    between atoms: _717  and  _718
REMARK  280  A    between atoms: _717  and  _720
REMARK  281  A    between atoms: _720  and  _721
REMARK  282  A    between atoms: _721  and  _722
REMARK  283  A    between atoms: _722  and  _723
REMARK  284  A    between atoms: _732  and  _734
REMARK  285  A    between atoms: _734  and  _735
REMARK  286  A    between atoms: _734  and  _737
REMARK  287  A    between atoms: _737  and  _738
REMARK  288  A    between atoms: _741  and  _743
REMARK  289  A    between atoms: _743  and  _744
REMARK  290  A    between atoms: _743  and  _746
REMARK  291  A    between atoms: _746  and  _747
REMARK  292  A    between atoms: _750  and  _752
REMARK  293  A    between atoms: _752  and  _753
REMARK  294  A    between atoms: _752  and  _755
REMARK  295  A    between atoms: _755  and  _756
REMARK  296  A    between atoms: _797  and  _800
REMARK                            x       y       z     vdW  Elec       q    Type
REMARK                         _______ _______ _______ _____ _____    ______ ____
ROOT
ATOM      1  O   HOH     1      13.181  28.709  18.150  0.00  0.00    +0.000 OA
ENDROOT
TORSDOF 0
REMARK  Name = ../refined-set-2016/1b1h/1b1h_pocket.pdb
REMARK  296 active torsions:
REMARK  status: ('A' for Active; 'I' for Inactive)
REMARK    1  A    between atoms: _1  and  _3
REMARK    2  A    between atoms: _3  and  _4
REMARK    3  A    between atoms: _3  and  _6
REMARK    4  A    between atoms: _6  and  _7
REMARK    5  A    between atoms: _12  and  _14
REMARK    6  A    between atoms: _14  and  _15
REMARK    7  A    between atoms: _17  and  _19
REMARK    8  A    between atoms: _19  and  _20
REMARK    9  A    between atoms: _19  and  _22
REMARK   10  A    between atoms: _22  and  _23
REMARK   11  A    between atoms: _25  and  _27
REMARK   12  A    between atoms: _27  and  _28
REMARK   13  A    between atoms: _27  and  _30
REMARK   14  A    between atoms: _30  and  _31
REMARK   15  A    between atoms: _31  and  _32
REMARK   16  A    between atoms: _37  and  _39
REMARK   17  A    between atoms: _39  and  _40
REMARK   18  A    between atoms: _39  and  _42
REMARK   19  A    between atoms: _42  and  _43
REMARK   20  A    between atoms: _46  and  _48
REMARK   21  A    between atoms: _48  and  _49
REMARK   22  A    between atoms: _48  and  _51
REMARK   23  A    between atoms: _51  and  _52
REMARK   24  A    between atoms: _52  and  _53
REMARK   25  A    between atoms: _56  and  _58
REMARK   26  A    between atoms: _58  and  _59
REMARK   27  A    between atoms: _61  and  _63
REMARK   28  A    between atoms: _63  and  _64
REMARK   29  A    between atoms: _63  and  _66
REMARK   30  A    between atoms: _70  and  _71
REMARK   31  A    between atoms: _76  and  _78
REMARK   32  A    between atoms: _78  and  _79
REMARK   33  A    between atoms: _78  and  _81
REMARK   34  A    between atoms: _81  and  _82
REMARK   35  A    between atoms: _82  and  _83
REMARK   36  A    between atoms: _86  and  _88
REMARK   37  A    between atoms: _88  and  _89
REMARK   38  A    between atoms: _88  and  _91
REMARK   39  A    between atoms: _91  and  _92
REMARK   40  A    between atoms: _94  and  _96
REMARK   41  A    between atoms: _96  and  _97
REMARK   42  A    between atoms: _96  and  _99
REMARK   43  A    between atoms: _99  and  _100
REMARK   44  A    between atoms: _105  and  _107
REMARK   45  A    between atoms: _107  and  _108
REMARK   46  A    between atoms: _107  and  _110
REMARK   47  A    between atoms: _110  and  _111
REMARK   48  A    between atoms: _111  and  _112
REMARK   49  A    between atoms: _112  and  _113
REMARK   50  A    between atoms: _123  and  _124
REMARK   51  A    between atoms: _129  and  _131
REMARK   52  A    between atoms: _131  and  _132
REMARK   53  A    between atoms: _131  and  _134
REMARK   54  A    between atoms: _134  and  _135
REMARK   55  A    between atoms: _140  and  _141
REMARK   56  A    between atoms: _143  and  _145
REMARK   57  A    between atoms: _145  and  _146
REMARK   58  A    between atoms: _145  and  _148
REMARK   59  A    between atoms: _148  and  _149
REMARK   60  A    between atoms: _154  and  _155
REMARK   61  A    between atoms: _157  and  _159
REMARK   62  A    between atoms: _159  and  _160
REMARK   63  A    between atoms: _159  and  _162
REMARK   64  A    between atoms: _165  and  _167
REMARK   65  A    between atoms: _167  and  _168
REMARK   66  A    between atoms: _167  and  _170
REMARK   67  A    between atoms: _170  and  _171
REMARK   68  A    between atoms: _177  and  _178
REMARK   69  A    between atoms: _183  and  _185
REMARK   70  A    between atoms: _185  and  _186
REMARK   71  A    between atoms: _185  and  _188
REMARK   72  A    between atoms: _188  and  _189
REMARK   73  A    between atoms: _191  and  _193
REMARK   74  A    between atoms: _193  and  _194
REMARK   75  A    between atoms: _193  and  _196
REMARK   76  A    between atoms: _196  and  _197
REMARK   77  A    between atoms: _197  and  _198
REMARK   78  A    between atoms: _201  and  _203
REMARK   79  A    between atoms: _203  and  _204
REMARK   80  A    between atoms: _203  and  _206
REMARK   81  A    between atoms: _206  and  _207
REMARK   82  A    between atoms: _212  and  _213
REMARK   83  A    between atoms: _215  and  _217
REMARK   84  A    between atoms: _217  and  _218
REMARK   85  A    between atoms: _217  and  _220
REMARK   86  A    between atoms: _220  and  _221
REMARK   87  A    between atoms: _226  and  _228
REMARK   88  A    between atoms: _228  and  _229
REMARK   89  A    between atoms: _228  and  _231
REMARK   90  A    between atoms: _231  and  _232
REMARK   91  A    between atoms: _237  and  _239
REMARK   92  A    between atoms: _239  and  _240
REMARK   93  A    between atoms: _239  and  _242
REMARK   94  A    between atoms: _242  and  _243
REMARK   95  A    between atoms: _243  and  _244
REMARK   96  A    between atoms: _246  and  _248
REMARK   97  A    between atoms: _248  and  _249
REMARK   98  A    between atoms: _248  and  _251
REMARK   99  A    between atoms: _251  and  _252
REMARK  100  A    between atoms: _257  and  _258
REMARK  101  A    between atoms: _260  and  _262
REMARK  102  A    between atoms: _262  and  _263
REMARK  103  A    between atoms: _262  and  _265
REMARK  104  A    between atoms: _265  and  _266
REMARK  105  A    between atoms: _269  and  _271
REMARK  106  A    between atoms: _271  and  _272
REMARK  107  A    between atoms: _271  and  _274
REMARK  108  A    between atoms: _274  and  _275
REMARK  109  A    between atoms: _275  and  _558
REMARK  110  A    between atoms: _276  and  _278
REMARK  111  A    between atoms: _278  and  _279
REMARK  112  A    between atoms: _278  and  _281
REMARK  113  A    between atoms: _281  and  _282
REMARK  114  A    between atoms: _285  and  _287
REMARK  115  A    between atoms: _287  and  _288
REMARK  116  A    between atoms: _287  and  _290
REMARK  117  A    between atoms: _290  and  _291
REMARK  118  A    between atoms: _296  and  _297
REMARK  119  A    between atoms: _299  and  _301
REMARK  120  A    between atoms: _301  and  _302
REMARK  121  A    between atoms: _301  and  _304
REMARK  122  A    between atoms: _304  and  _305
REMARK  123  A    between atoms: _310  and  _311
REMARK  124  A    between atoms: _313  and  _315
REMARK  125  A    between atoms: _315  and  _316
REMARK  126  A    between atoms: _315  and  _318
REMARK  127  A    between atoms: _318  and  _319
REMARK  128  A    between atoms: _319  and  _320
REMARK  129  A    between atoms: _323  and  _325
REMARK  130  A    between atoms: _325  and  _326
REMARK  131  A    between atoms: _325  and  _328
REMARK  132  A    between atoms: _328  and  _329
REMARK  133  A    between atoms: _334  and  _335
REMARK  134  A    between atoms: _337  and  _339
REMARK  135  A    between atoms: _339  and  _340
REMARK  136  A    between atoms: _339  and  _342
REMARK  137  A    between atoms: _342  and  _343
REMARK  138  A    between atoms: _348  and  _350
REMARK  139  A    between atoms: _350  and  _351
REMARK  140  A    between atoms: _350  and  _353
REMARK  141  A    between atoms: _353  and  _354
REMARK  142  A    between atoms: _357  and  _359
REMARK  143  A    between atoms: _359  and  _360
REMARK  144  A    between atoms: _359  and  _362
REMARK  145  A    between atoms: _362  and  _363
REMARK  146  A    between atoms: _368  and  _370
REMARK  147  A    between atoms: _370  and  _371
REMARK  148  A    between atoms: _370  and  _373
REMARK  149  A    between atoms: _373  and  _374
REMARK  150  A    between atoms: _384  and  _386
REMARK  151  A    between atoms: _386  and  _387
REMARK  152  A    between atoms: _386  and  _389
REMARK  153  A    between atoms: _389  and  _390
REMARK  154  A    between atoms: _390  and  _391
REMARK  155  A    between atoms: _391  and  _392
REMARK  156  A    between atoms: _392  and  _393
REMARK  157  A    between atoms: _397  and  _399
REMARK  158  A    between atoms: _399  and  _400
REMARK  159  A    between atoms: _399  and  _402
REMARK  160  A    between atoms: _402  and  _403
REMARK  161  A    between atoms: _406  and  _408
REMARK  162  A    between atoms: _408  and  _409
REMARK  163  A    between atoms: _408  and  _411
REMARK  164  A    between atoms: _411  and  _412
REMARK  165  A    between atoms: _418  and  _420
REMARK  166  A    between atoms: _420  and  _421
REMARK  167  A    between atoms: _420  and  _423
REMARK  168  A    between atoms: _423  and  _424
REMARK  169  A    between atoms: _427  and  _429
REMARK  170  A    between atoms: _429  and  _430
REMARK  171  A    between atoms: _429  and  _432
REMARK  172  A    between atoms: _432  and  _433
REMARK  173  A    between atoms: _436  and  _438
REMARK  174  A    between atoms: _438  and  _439
REMARK  175  A    between atoms: _438  and  _441
REMARK  176  A    between atoms: _441  and  _442
REMARK  177  A    between atoms: _445  and  _447
REMARK  178  A    between atoms: _447  and  _448
REMARK  179  A    between atoms: _447  and  _450
REMARK  180  A    between atoms: _450  and  _451
REMARK  181  A    between atoms: _451  and  _452
REMARK  182  A    between atoms: _452  and  _453
REMARK  183  A    between atoms: _462  and  _464
REMARK  184  A    between atoms: _464  and  _465
REMARK  185  A    between atoms: _464  and  _467
REMARK  186  A    between atoms: _467  and  _468
REMARK  187  A    between atoms: _473  and  _475
REMARK  188  A    between atoms: _475  and  _476
REMARK  189  A    between atoms: _475  and  _478
REMARK  190  A    between atoms: _478  and  _479
REMARK  191  A    between atoms: _479  and  _480
REMARK  192  A    between atoms: _485  and  _487
REMARK  193  A    between atoms: _487  and  _488
REMARK  194  A    between atoms: _490  and  _492
REMARK  195  A    between atoms: _492  and  _493
REMARK  196  A    between atoms: _492  and  _495
REMARK  197  A    between atoms: _495  and  _496
REMARK  198  A    between atoms: _502  and  _504
REMARK  199  A    between atoms: _504  and  _505
REMARK  200  A    between atoms: _508  and  _510
REMARK  201  A    between atoms: _510  and  _511
REMARK  202  A    between atoms: _510  and  _513
REMARK  203  A    between atoms: _513  and  _514
REMARK  204  A    between atoms: _514  and  _515
REMARK  205  A    between atoms: _515  and  _516
REMARK  206  A    between atoms: _525  and  _527
REMARK  207  A    between atoms: _527  and  _528
REMARK  208  A    between atoms: _531  and  _533
REMARK  209  A    between atoms: _533  and  _534
REMARK  210  A    between atoms: _536  and  _538
REMARK  211  A    between atoms: _538  and  _539
REMARK  212  A    between atoms: _538  and  _541
REMARK  213  A    between atoms: _541  and  _542
REMARK  214  A    between atoms: _552  and  _554
REMARK  215  A    between atoms: _554  and  _555
REMARK  216  A    between atoms: _554  and  _557
REMARK  217  A    between atoms: _557  and  _558
REMARK  218  A    between atoms: _559  and  _561
REMARK  219  A    between atoms: _561  and  _562
REMARK  220  A    between atoms: _565  and  _567
REMARK  221  A    between atoms: _567  and  _568
REMARK  222  A    between atoms: _567  and  _570
REMARK  223  A    between atoms: _570  and  _571
REMARK  224  A    between atoms: _574  and  _576
REMARK  225  A    between atoms: _576  and  _577
REMARK  226  A    between atoms: _576  and  _579
REMARK  227  A    between atoms: _579  and  _580
REMARK  228  A    between atoms: _585  and  _586
REMARK  229  A    between atoms: _588  and  _590
REMARK  230  A    between atoms: _590  and  _591
REMARK  231  A    between atoms: _590  and  _593
REMARK  232  A    between atoms: _593  and  _594
REMARK  233  A    between atoms: _596  and  _598
REMARK  234  A    between atoms: _598  and  _599
REMARK  235  A    between atoms: _598  and  _601
REMARK  236  A    between atoms: _601  and  _602
REMARK  237  A    between atoms: _608  and  _610
REMARK  238  A    between atoms: _610  and  _611
REMARK  239  A    between atoms: _610  and  _613
REMARK  240  A    between atoms: _613  and  _614
REMARK  241  A    between atoms: _617  and  _619
REMARK  242  A    between atoms: _619  and  _620
REMARK  243  A    between atoms: _619  and  _622
REMARK  244  A    between atoms: _622  and  _623
REMARK  245  A    between atoms: _625  and  _627
REMARK  246  A    between atoms: _627  and  _628
REMARK  247  A    between atoms: _627  and  _630
REMARK  248  A    between atoms: _630  and  _631
REMARK  249  A    between atoms: _636  and  _638
REMARK  250  A    between atoms: _638  and  _639
REMARK  251  A    between atoms: _638  and  _641
REMARK  252  A    between atoms: _641  and  _642
REMARK  253  A    between atoms: _647  and  _649
REMARK  254  A    between atoms: _649  and  _650
REMARK  255  A    between atoms: _649  and  _652
REMARK  256  A    between atoms: _652  and  _653
REMARK  257  A    between atoms: _656  and  _658
REMARK  258  A    between atoms: _658  and  _659
REMARK  259  A    between atoms: _662  and  _664
REMARK  260  A    between atoms: _664  and  _665
REMARK  261  A    between atoms: _664  and  _667
REMARK  262  A    between atoms: _667  and  _668
REMARK  263  A    between atoms: _673  and  _674
REMARK  264  A    between atoms: _676  and  _678
REMARK  265  A    between atoms: _678  and  _679
REMARK  266  A    between atoms: _678  and  _681
REMARK  267  A    between atoms: _681  and  _682
REMARK  268  A    between atoms: _687  and  _688
REMARK  269  A    between atoms: _690  and  _692
REMARK  270  A    between atoms: _692  and  _693
REMARK  271  A    between atoms: _692  and  _695
REMARK  272  A    between atoms: _698  and  _700
REMARK  273  A    between atoms: _700  and  _701
REMARK  274  A    between atoms: _700  and  _703
REMARK  275  A    between atoms: _703  and  _704
REMARK  276  A    between atoms: _709  and  _711
REMARK  277  A    between atoms: _711  and  _712
REMARK  278  A    between atoms: _715  and  _717
REMARK  279  A    between atoms: _717  and  _718
REMARK  280  A    between atoms: _717  and  _720
REMARK  281  A    between atoms: _720  and  _721
REMARK  282  A    between atoms: _721  and  _722
REMARK  283  A    between atoms: _722  and  _723
REMARK  284  A    between atoms: _732  and  _734
REMARK  285  A    between atoms: _734  and  _735
REMARK  286  A    between atoms: _734  and  _737
REMARK  287  A    between atoms: _737  and  _738
REMARK  288  A    between atoms: _741  and  _743
REMARK  289  A    between atoms: _743  and  _744
REMARK  290  A    between atoms: _743  and  _746
REMARK  291  A    between atoms: _746  and  _747
REMARK  292  A    between atoms: _750  and  _752
REMARK  293  A    between atoms: _752  and  _753
REMARK  294  A    between atoms: _752  and  _755
REMARK  295  A    between atoms: _755  and  _756
REMARK  296  A    between atoms: _797  and  _800
REMARK                            x       y       z     vdW  Elec       q    Type
REMARK                         _______ _______ _______ _____ _____    ______ ____
ROOT
ATOM      1  O   HOH     1      -1.705  22.137  12.906  0.00  0.00    +0.000 OA
ENDROOT
TORSDOF 0
REMARK  Name = ../refined-set-2016/1b1h/1b1h_pocket.pdb
REMARK  296 active torsions:
REMARK  status: ('A' for Active; 'I' for Inactive)
REMARK    1  A    between atoms: _1  and  _3
REMARK    2  A    between atoms: _3  and  _4
REMARK    3  A    between atoms: _3  and  _6
REMARK    4  A    between atoms: _6  and  _7
REMARK    5  A    between atoms: _12  and  _14
REMARK    6  A    between atoms: _14  and  _15
REMARK    7  A    between atoms: _17  and  _19
REMARK    8  A    between atoms: _19  and  _20
REMARK    9  A    between atoms: _19  and  _22
REMARK   10  A    between atoms: _22  and  _23
REMARK   11  A    between atoms: _25  and  _27
REMARK   12  A    between atoms: _27  and  _28
REMARK   13  A    between atoms: _27  and  _30
REMARK   14  A    between atoms: _30  and  _31
REMARK   15  A    between atoms: _31  and  _32
REMARK   16  A    between atoms: _37  and  _39
REMARK   17  A    between atoms: _39  and  _40
REMARK   18  A    between atoms: _39  and  _42
REMARK   19  A    between atoms: _42  and  _43
REMARK   20  A    between atoms: _46  and  _48
REMARK   21  A    between atoms: _48  and  _49
REMARK   22  A    between atoms: _48  and  _51
REMARK   23  A    between atoms: _51  and  _52
REMARK   24  A    between atoms: _52  and  _53
REMARK   25  A    between atoms: _56  and  _58
REMARK   26  A    between atoms: _58  and  _59
REMARK   27  A    between atoms: _61  and  _63
REMARK   28  A    between atoms: _63  and  _64
REMARK   29  A    between atoms: _63  and  _66
REMARK   30  A    between atoms: _70  and  _71
REMARK   31  A    between atoms: _76  and  _78
REMARK   32  A    between atoms: _78  and  _79
REMARK   33  A    between atoms: _78  and  _81
REMARK   34  A    between atoms: _81  and  _82
REMARK   35  A    between atoms: _82  and  _83
REMARK   36  A    between atoms: _86  and  _88
REMARK   37  A    between atoms: _88  and  _89
REMARK   38  A    between atoms: _88  and  _91
REMARK   39  A    between atoms: _91  and  _92
REMARK   40  A    between atoms: _94  and  _96
REMARK   41  A    between atoms: _96  and  _97
REMARK   42  A    between atoms: _96  and  _99
REMARK   43  A    between atoms: _99  and  _100
REMARK   44  A    between atoms: _105  and  _107
REMARK   45  A    between atoms: _107  and  _108
REMARK   46  A    between atoms: _107  and  _110
REMARK   47  A    between atoms: _110  and  _111
REMARK   48  A    between atoms: _111  and  _112
REMARK   49  A    between atoms: _112  and  _113
REMARK   50  A    between atoms: _123  and  _124
REMARK   51  A    between atoms: _129  and  _131
REMARK   52  A    between atoms: _131  and  _132
REMARK   53  A    between atoms: _131  and  _134
REMARK   54  A    between atoms: _134  and  _135
REMARK   55  A    between atoms: _140  and  _141
REMARK   56  A    between atoms: _143  and  _145
REMARK   57  A    between atoms: _145  and  _146
REMARK   58  A    between atoms: _145  and  _148
REMARK   59  A    between atoms: _148  and  _149
REMARK   60  A    between atoms: _154  and  _155
REMARK   61  A    between atoms: _157  and  _159
REMARK   62  A    between atoms: _159  and  _160
REMARK   63  A    between atoms: _159  and  _162
REMARK   64  A    between atoms: _165  and  _167
REMARK   65  A    between atoms: _167  and  _168
REMARK   66  A    between atoms: _167  and  _170
REMARK   67  A    between atoms: _170  and  _171
REMARK   68  A    between atoms: _177  and  _178
REMARK   69  A    between atoms: _183  and  _185
REMARK   70  A    between atoms: _185  and  _186
REMARK   71  A    between atoms: _185  and  _188
REMARK   72  A    between atoms: _188  and  _189
REMARK   73  A    between atoms: _191  and  _193
REMARK   74  A    between atoms: _193  and  _194
REMARK   75  A    between atoms: _193  and  _196
REMARK   76  A    between atoms: _196  and  _197
REMARK   77  A    between atoms: _197  and  _198
REMARK   78  A    between atoms: _201  and  _203
REMARK   79  A    between atoms: _203  and  _204
REMARK   80  A    between atoms: _203  and  _206
REMARK   81  A    between atoms: _206  and  _207
REMARK   82  A    between atoms: _212  and  _213
REMARK   83  A    between atoms: _215  and  _217
REMARK   84  A    between atoms: _217  and  _218
REMARK   85  A    between atoms: _217  and  _220
REMARK   86  A    between atoms: _220  and  _221
REMARK   87  A    between atoms: _226  and  _228
REMARK   88  A    between atoms: _228  and  _229
REMARK   89  A    between atoms: _228  and  _231
REMARK   90  A    between atoms: _231  and  _232
REMARK   91  A    between atoms: _237  and  _239
REMARK   92  A    between atoms: _239  and  _240
REMARK   93  A    between atoms: _239  and  _242
REMARK   94  A    between atoms: _242  and  _243
REMARK   95  A    between atoms: _243  and  _244
REMARK   96  A    between atoms: _246  and  _248
REMARK   97  A    between atoms: _248  and  _249
REMARK   98  A    between atoms: _248  and  _251
REMARK   99  A    between atoms: _251  and  _252
REMARK  100  A    between atoms: _257  and  _258
REMARK  101  A    between atoms: _260  and  _262
REMARK  102  A    between atoms: _262  and  _263
REMARK  103  A    between atoms: _262  and  _265
REMARK  104  A    between atoms: _265  and  _266
REMARK  105  A    between atoms: _269  and  _271
REMARK  106  A    between atoms: _271  and  _272
REMARK  107  A    between atoms: _271  and  _274
REMARK  108  A    between atoms: _274  and  _275
REMARK  109  A    between atoms: _275  and  _558
REMARK  110  A    between atoms: _276  and  _278
REMARK  111  A    between atoms: _278  and  _279
REMARK  112  A    between atoms: _278  and  _281
REMARK  113  A    between atoms: _281  and  _282
REMARK  114  A    between atoms: _285  and  _287
REMARK  115  A    between atoms: _287  and  _288
REMARK  116  A    between atoms: _287  and  _290
REMARK  117  A    between atoms: _290  and  _291
REMARK  118  A    between atoms: _296  and  _297
REMARK  119  A    between atoms: _299  and  _301
REMARK  120  A    between atoms: _301  and  _302
REMARK  121  A    between atoms: _301  and  _304
REMARK  122  A    between atoms: _304  and  _305
REMARK  123  A    between atoms: _310  and  _311
REMARK  124  A    between atoms: _313  and  _315
REMARK  125  A    between atoms: _315  and  _316
REMARK  126  A    between atoms: _315  and  _318
REMARK  127  A    between atoms: _318  and  _319
REMARK  128  A    between atoms: _319  and  _320
REMARK  129  A    between atoms: _323  and  _325
REMARK  130  A    between atoms: _325  and  _326
REMARK  131  A    between atoms: _325  and  _328
REMARK  132  A    between atoms: _328  and  _329
REMARK  133  A    between atoms: _334  and  _335
REMARK  134  A    between atoms: _337  and  _339
REMARK  135  A    between atoms: _339  and  _340
REMARK  136  A    between atoms: _339  and  _342
REMARK  137  A    between atoms: _342  and  _343
REMARK  138  A    between atoms: _348  and  _350
REMARK  139  A    between atoms: _350  and  _351
REMARK  140  A    between atoms: _350  and  _353
REMARK  141  A    between atoms: _353  and  _354
REMARK  142  A    between atoms: _357  and  _359
REMARK  143  A    between atoms: _359  and  _360
REMARK  144  A    between atoms: _359  and  _362
REMARK  145  A    between atoms: _362  and  _363
REMARK  146  A    between atoms: _368  and  _370
REMARK  147  A    between atoms: _370  and  _371
REMARK  148  A    between atoms: _370  and  _373
REMARK  149  A    between atoms: _373  and  _374
REMARK  150  A    between atoms: _384  and  _386
REMARK  151  A    between atoms: _386  and  _387
REMARK  152  A    between atoms: _386  and  _389
REMARK  153  A    between atoms: _389  and  _390
REMARK  154  A    between atoms: _390  and  _391
REMARK  155  A    between atoms: _391  and  _392
REMARK  156  A    between atoms: _392  and  _393
REMARK  157  A    between atoms: _397  and  _399
REMARK  158  A    between atoms: _399  and  _400
REMARK  159  A    between atoms: _399  and  _402
REMARK  160  A    between atoms: _402  and  _403
REMARK  161  A    between atoms: _406  and  _408
REMARK  162  A    between atoms: _408  and  _409
REMARK  163  A    between atoms: _408  and  _411
REMARK  164  A    between atoms: _411  and  _412
REMARK  165  A    between atoms: _418  and  _420
REMARK  166  A    between atoms: _420  and  _421
REMARK  167  A    between atoms: _420  and  _423
REMARK  168  A    between atoms: _423  and  _424
REMARK  169  A    between atoms: _427  and  _429
REMARK  170  A    between atoms: _429  and  _430
REMARK  171  A    between atoms: _429  and  _432
REMARK  172  A    between atoms: _432  and  _433
REMARK  173  A    between atoms: _436  and  _438
REMARK  174  A    between atoms: _438  and  _439
REMARK  175  A    between atoms: _438  and  _441
REMARK  176  A    between atoms: _441  and  _442
REMARK  177  A    between atoms: _445  and  _447
REMARK  178  A    between atoms: _447  and  _448
REMARK  179  A    between atoms: _447  and  _450
REMARK  180  A    between atoms: _450  and  _451
REMARK  181  A    between atoms: _451  and  _452
REMARK  182  A    between atoms: _452  and  _453
REMARK  183  A    between atoms: _462  and  _464
REMARK  184  A    between atoms: _464  and  _465
REMARK  185  A    between atoms: _464  and  _467
REMARK  186  A    between atoms: _467  and  _468
REMARK  187  A    between atoms: _473  and  _475
REMARK  188  A    between atoms: _475  and  _476
REMARK  189  A    between atoms: _475  and  _478
REMARK  190  A    between atoms: _478  and  _479
REMARK  191  A    between atoms: _479  and  _480
REMARK  192  A    between atoms: _485  and  _487
REMARK  193  A    between atoms: _487  and  _488
REMARK  194  A    between atoms: _490  and  _492
REMARK  195  A    between atoms: _492  and  _493
REMARK  196  A    between atoms: _492  and  _495
REMARK  197  A    between atoms: _495  and  _496
REMARK  198  A    between atoms: _502  and  _504
REMARK  199  A    between atoms: _504  and  _505
REMARK  200  A    between atoms: _508  and  _510
REMARK  201  A    between atoms: _510  and  _511
REMARK  202  A    between atoms: _510  and  _513
REMARK  203  A    between atoms: _513  and  _514
REMARK  204  A    between atoms: _514  and  _515
REMARK  205  A    between atoms: _515  and  _516
REMARK  206  A    between atoms: _525  and  _527
REMARK  207  A    between atoms: _527  and  _528
REMARK  208  A    between atoms: _531  and  _533
REMARK  209  A    between atoms: _533  and  _534
REMARK  210  A    between atoms: _536  and  _538
REMARK  211  A    between atoms: _538  and  _539
REMARK  212  A    between atoms: _538  and  _541
REMARK  213  A    between atoms: _541  and  _542
REMARK  214  A    between atoms: _552  and  _554
REMARK  215  A    between atoms: _554  and  _555
REMARK  216  A    between atoms: _554  and  _557
REMARK  217  A    between atoms: _557  and  _558
REMARK  218  A    between atoms: _559  and  _561
REMARK  219  A    between atoms: _561  and  _562
REMARK  220  A    between atoms: _565  and  _567
REMARK  221  A    between atoms: _567  and  _568
REMARK  222  A    between atoms: _567  and  _570
REMARK  223  A    between atoms: _570  and  _571
REMARK  224  A    between atoms: _574  and  _576
REMARK  225  A    between atoms: _576  and  _577
REMARK  226  A    between atoms: _576  and  _579
REMARK  227  A    between atoms: _579  and  _580
REMARK  228  A    between atoms: _585  and  _586
REMARK  229  A    between atoms: _588  and  _590
REMARK  230  A    between atoms: _590  and  _591
REMARK  231  A    between atoms: _590  and  _593
REMARK  232  A    between atoms: _593  and  _594
REMARK  233  A    between atoms: _596  and  _598
REMARK  234  A    between atoms: _598  and  _599
REMARK  235  A    between atoms: _598  and  _601
REMARK  236  A    between atoms: _601  and  _602
REMARK  237  A    between atoms: _608  and  _610
REMARK  238  A    between atoms: _610  and  _611
REMARK  239  A    between atoms: _610  and  _613
REMARK  240  A    between atoms: _613  and  _614
REMARK  241  A    between atoms: _617  and  _619
REMARK  242  A    between atoms: _619  and  _620
REMARK  243  A    between atoms: _619  and  _622
REMARK  244  A    between atoms: _622  and  _623
REMARK  245  A    between atoms: _625  and  _627
REMARK  246  A    between atoms: _627  and  _628
REMARK  247  A    between atoms: _627  and  _630
REMARK  248  A    between atoms: _630  and  _631
REMARK  249  A    between atoms: _636  and  _638
REMARK  250  A    between atoms: _638  and  _639
REMARK  251  A    between atoms: _638  and  _641
REMARK  252  A    between atoms: _641  and  _642
REMARK  253  A    between atoms: _647  and  _649
REMARK  254  A    between atoms: _649  and  _650
REMARK  255  A    between atoms: _649  and  _652
REMARK  256  A    between atoms: _652  and  _653
REMARK  257  A    between atoms: _656  and  _658
REMARK  258  A    between atoms: _658  and  _659
REMARK  259  A    between atoms: _662  and  _664
REMARK  260  A    between atoms: _664  and  _665
REMARK  261  A    between atoms: _664  and  _667
REMARK  262  A    between atoms: _667  and  _668
REMARK  263  A    between atoms: _673  and  _674
REMARK  264  A    between atoms: _676  and  _678
REMARK  265  A    between atoms: _678  and  _679
REMARK  266  A    between atoms: _678  and  _681
REMARK  267  A    between atoms: _681  and  _682
REMARK  268  A    between atoms: _687  and  _688
REMARK  269  A    between atoms: _690  and  _692
REMARK  270  A    between atoms: _692  and  _693
REMARK  271  A    between atoms: _692  and  _695
REMARK  272  A    between atoms: _698  and  _700
REMARK  273  A    between atoms: _700  and  _701
REMARK  274  A    between atoms: _700  and  _703
REMARK  275  A    between atoms: _703  and  _704
REMARK  276  A    between atoms: _709  and  _711
REMARK  277  A    between atoms: _711  and  _712
REMARK  278  A    between atoms: _715  and  _717
REMARK  279  A    between atoms: _717  and  _718
REMARK  280  A    between atoms: _717  and  _720
REMARK  281  A    between atoms: _720  and  _721
REMARK  282  A    between atoms: _721  and  _722
REMARK  283  A    between atoms: _722  and  _723
REMARK  284  A    between atoms: _732  and  _734
REMARK  285  A    between atoms: _734  and  _735
REMARK  286  A    between atoms: _734  and  _737
REMARK  287  A    between atoms: _737  and  _738
REMARK  288  A    between atoms: _741  and  _743
REMARK  289  A    between atoms: _743  and  _744
REMARK  290  A    between atoms: _743  and  _746
REMARK  291  A    between atoms: _746  and  _747
REMARK  292  A    between atoms: _750  and  _752
REMARK  293  A    between atoms: _752  and  _753
REMARK  294  A    between atoms: _752  and  _755
REMARK  295  A    between atoms: _755  and  _756
REMARK  296  A    between atoms: _797  and  _800
REMARK                            x       y       z     vdW  Elec       q    Type
REMARK                         _______ _______ _______ _____ _____    ______ ____
ROOT
ATOM      1  O   HOH     1      12.124  29.405  13.385  0.00  0.00    +0.000 OA
ENDROOT
TORSDOF 0
REMARK  Name = ../refined-set-2016/1b1h/1b1h_pocket.pdb
REMARK  296 active torsions:
REMARK  status: ('A' for Active; 'I' for Inactive)
REMARK    1  A    between atoms: _1  and  _3
REMARK    2  A    between atoms: _3  and  _4
REMARK    3  A    between atoms: _3  and  _6
REMARK    4  A    between atoms: _6  and  _7
REMARK    5  A    between atoms: _12  and  _14
REMARK    6  A    between atoms: _14  and  _15
REMARK    7  A    between atoms: _17  and  _19
REMARK    8  A    between atoms: _19  and  _20
REMARK    9  A    between atoms: _19  and  _22
REMARK   10  A    between atoms: _22  and  _23
REMARK   11  A    between atoms: _25  and  _27
REMARK   12  A    between atoms: _27  and  _28
REMARK   13  A    between atoms: _27  and  _30
REMARK   14  A    between atoms: _30  and  _31
REMARK   15  A    between atoms: _31  and  _32
REMARK   16  A    between atoms: _37  and  _39
REMARK   17  A    between atoms: _39  and  _40
REMARK   18  A    between atoms: _39  and  _42
REMARK   19  A    between atoms: _42  and  _43
REMARK   20  A    between atoms: _46  and  _48
REMARK   21  A    between atoms: _48  and  _49
REMARK   22  A    between atoms: _48  and  _51
REMARK   23  A    between atoms: _51  and  _52
REMARK   24  A    between atoms: _52  and  _53
REMARK   25  A    between atoms: _56  and  _58
REMARK   26  A    between atoms: _58  and  _59
REMARK   27  A    between atoms: _61  and  _63
REMARK   28  A    between atoms: _63  and  _64
REMARK   29  A    between atoms: _63  and  _66
REMARK   30  A    between atoms: _70  and  _71
REMARK   31  A    between atoms: _76  and  _78
REMARK   32  A    between atoms: _78  and  _79
REMARK   33  A    between atoms: _78  and  _81
REMARK   34  A    between atoms: _81  and  _82
REMARK   35  A    between atoms: _82  and  _83
REMARK   36  A    between atoms: _86  and  _88
REMARK   37  A    between atoms: _88  and  _89
REMARK   38  A    between atoms: _88  and  _91
REMARK   39  A    between atoms: _91  and  _92
REMARK   40  A    between atoms: _94  and  _96
REMARK   41  A    between atoms: _96  and  _97
REMARK   42  A    between atoms: _96  and  _99
REMARK   43  A    between atoms: _99  and  _100
REMARK   44  A    between atoms: _105  and  _107
REMARK   45  A    between atoms: _107  and  _108
REMARK   46  A    between atoms: _107  and  _110
REMARK   47  A    between atoms: _110  and  _111
REMARK   48  A    between atoms: _111  and  _112
REMARK   49  A    between atoms: _112  and  _113
REMARK   50  A    between atoms: _123  and  _124
REMARK   51  A    between atoms: _129  and  _131
REMARK   52  A    between atoms: _131  and  _132
REMARK   53  A    between atoms: _131  and  _134
REMARK   54  A    between atoms: _134  and  _135
REMARK   55  A    between atoms: _140  and  _141
REMARK   56  A    between atoms: _143  and  _145
REMARK   57  A    between atoms: _145  and  _146
REMARK   58  A    between atoms: _145  and  _148
REMARK   59  A    between atoms: _148  and  _149
REMARK   60  A    between atoms: _154  and  _155
REMARK   61  A    between atoms: _157  and  _159
REMARK   62  A    between atoms: _159  and  _160
REMARK   63  A    between atoms: _159  and  _162
REMARK   64  A    between atoms: _165  and  _167
REMARK   65  A    between atoms: _167  and  _168
REMARK   66  A    between atoms: _167  and  _170
REMARK   67  A    between atoms: _170  and  _171
REMARK   68  A    between atoms: _177  and  _178
REMARK   69  A    between atoms: _183  and  _185
REMARK   70  A    between atoms: _185  and  _186
REMARK   71  A    between atoms: _185  and  _188
REMARK   72  A    between atoms: _188  and  _189
REMARK   73  A    between atoms: _191  and  _193
REMARK   74  A    between atoms: _193  and  _194
REMARK   75  A    between atoms: _193  and  _196
REMARK   76  A    between atoms: _196  and  _197
REMARK   77  A    between atoms: _197  and  _198
REMARK   78  A    between atoms: _201  and  _203
REMARK   79  A    between atoms: _203  and  _204
REMARK   80  A    between atoms: _203  and  _206
REMARK   81  A    between atoms: _206  and  _207
REMARK   82  A    between atoms: _212  and  _213
REMARK   83  A    between atoms: _215  and  _217
REMARK   84  A    between atoms: _217  and  _218
REMARK   85  A    between atoms: _217  and  _220
REMARK   86  A    between atoms: _220  and  _221
REMARK   87  A    between atoms: _226  and  _228
REMARK   88  A    between atoms: _228  and  _229
REMARK   89  A    between atoms: _228  and  _231
REMARK   90  A    between atoms: _231  and  _232
REMARK   91  A    between atoms: _237  and  _239
REMARK   92  A    between atoms: _239  and  _240
REMARK   93  A    between atoms: _239  and  _242
REMARK   94  A    between atoms: _242  and  _243
REMARK   95  A    between atoms: _243  and  _244
REMARK   96  A    between atoms: _246  and  _248
REMARK   97  A    between atoms: _248  and  _249
REMARK   98  A    between atoms: _248  and  _251
REMARK   99  A    between atoms: _251  and  _252
REMARK  100  A    between atoms: _257  and  _258
REMARK  101  A    between atoms: _260  and  _262
REMARK  102  A    between atoms: _262  and  _263
REMARK  103  A    between atoms: _262  and  _265
REMARK  104  A    between atoms: _265  and  _266
REMARK  105  A    between atoms: _269  and  _271
REMARK  106  A    between atoms: _271  and  _272
REMARK  107  A    between atoms: _271  and  _274
REMARK  108  A    between atoms: _274  and  _275
REMARK  109  A    between atoms: _275  and  _558
REMARK  110  A    between atoms: _276  and  _278
REMARK  111  A    between atoms: _278  and  _279
REMARK  112  A    between atoms: _278  and  _281
REMARK  113  A    between atoms: _281  and  _282
REMARK  114  A    between atoms: _285  and  _287
REMARK  115  A    between atoms: _287  and  _288
REMARK  116  A    between atoms: _287  and  _290
REMARK  117  A    between atoms: _290  and  _291
REMARK  118  A    between atoms: _296  and  _297
REMARK  119  A    between atoms: _299  and  _301
REMARK  120  A    between atoms: _301  and  _302
REMARK  121  A    between atoms: _301  and  _304
REMARK  122  A    between atoms: _304  and  _305
REMARK  123  A    between atoms: _310  and  _311
REMARK  124  A    between atoms: _313  and  _315
REMARK  125  A    between atoms: _315  and  _316
REMARK  126  A    between atoms: _315  and  _318
REMARK  127  A    between atoms: _318  and  _319
REMARK  128  A    between atoms: _319  and  _320
REMARK  129  A    between atoms: _323  and  _325
REMARK  130  A    between atoms: _325  and  _326
REMARK  131  A    between atoms: _325  and  _328
REMARK  132  A    between atoms: _328  and  _329
REMARK  133  A    between atoms: _334  and  _335
REMARK  134  A    between atoms: _337  and  _339
REMARK  135  A    between atoms: _339  and  _340
REMARK  136  A    between atoms: _339  and  _342
REMARK  137  A    between atoms: _342  and  _343
REMARK  138  A    between atoms: _348  and  _350
REMARK  139  A    between atoms: _350  and  _351
REMARK  140  A    between atoms: _350  and  _353
REMARK  141  A    between atoms: _353  and  _354
REMARK  142  A    between atoms: _357  and  _359
REMARK  143  A    between atoms: _359  and  _360
REMARK  144  A    between atoms: _359  and  _362
REMARK  145  A    between atoms: _362  and  _363
REMARK  146  A    between atoms: _368  and  _370
REMARK  147  A    between atoms: _370  and  _371
REMARK  148  A    between atoms: _370  and  _373
REMARK  149  A    between atoms: _373  and  _374
REMARK  150  A    between atoms: _384  and  _386
REMARK  151  A    between atoms: _386  and  _387
REMARK  152  A    between atoms: _386  and  _389
REMARK  153  A    between atoms: _389  and  _390
REMARK  154  A    between atoms: _390  and  _391
REMARK  155  A    between atoms: _391  and  _392
REMARK  156  A    between atoms: _392  and  _393
REMARK  157  A    between atoms: _397  and  _399
REMARK  158  A    between atoms: _399  and  _400
REMARK  159  A    between atoms: _399  and  _402
REMARK  160  A    between atoms: _402  and  _403
REMARK  161  A    between atoms: _406  and  _408
REMARK  162  A    between atoms: _408  and  _409
REMARK  163  A    between atoms: _408  and  _411
REMARK  164  A    between atoms: _411  and  _412
REMARK  165  A    between atoms: _418  and  _420
REMARK  166  A    between atoms: _420  and  _421
REMARK  167  A    between atoms: _420  and  _423
REMARK  168  A    between atoms: _423  and  _424
REMARK  169  A    between atoms: _427  and  _429
REMARK  170  A    between atoms: _429  and  _430
REMARK  171  A    between atoms: _429  and  _432
REMARK  172  A    between atoms: _432  and  _433
REMARK  173  A    between atoms: _436  and  _438
REMARK  174  A    between atoms: _438  and  _439
REMARK  175  A    between atoms: _438  and  _441
REMARK  176  A    between atoms: _441  and  _442
REMARK  177  A    between atoms: _445  and  _447
REMARK  178  A    between atoms: _447  and  _448
REMARK  179  A    between atoms: _447  and  _450
REMARK  180  A    between atoms: _450  and  _451
REMARK  181  A    between atoms: _451  and  _452
REMARK  182  A    between atoms: _452  and  _453
REMARK  183  A    between atoms: _462  and  _464
REMARK  184  A    between atoms: _464  and  _465
REMARK  185  A    between atoms: _464  and  _467
REMARK  186  A    between atoms: _467  and  _468
REMARK  187  A    between atoms: _473  and  _475
REMARK  188  A    between atoms: _475  and  _476
REMARK  189  A    between atoms: _475  and  _478
REMARK  190  A    between atoms: _478  and  _479
REMARK  191  A    between atoms: _479  and  _480
REMARK  192  A    between atoms: _485  and  _487
REMARK  193  A    between atoms: _487  and  _488
REMARK  194  A    between atoms: _490  and  _492
REMARK  195  A    between atoms: _492  and  _493
REMARK  196  A    between atoms: _492  and  _495
REMARK  197  A    between atoms: _495  and  _496
REMARK  198  A    between atoms: _502  and  _504
REMARK  199  A    between atoms: _504  and  _505
REMARK  200  A    between atoms: _508  and  _510
REMARK  201  A    between atoms: _510  and  _511
REMARK  202  A    between atoms: _510  and  _513
REMARK  203  A    between atoms: _513  and  _514
REMARK  204  A    between atoms: _514  and  _515
REMARK  205  A    between atoms: _515  and  _516
REMARK  206  A    between atoms: _525  and  _527
REMARK  207  A    between atoms: _527  and  _528
REMARK  208  A    between atoms: _531  and  _533
REMARK  209  A    between atoms: _533  and  _534
REMARK  210  A    between atoms: _536  and  _538
REMARK  211  A    between atoms: _538  and  _539
REMARK  212  A    between atoms: _538  and  _541
REMARK  213  A    between atoms: _541  and  _542
REMARK  214  A    between atoms: _552  and  _554
REMARK  215  A    between atoms: _554  and  _555
REMARK  216  A    between atoms: _554  and  _557
REMARK  217  A    between atoms: _557  and  _558
REMARK  218  A    between atoms: _559  and  _561
REMARK  219  A    between atoms: _561  and  _562
REMARK  220  A    between atoms: _565  and  _567
REMARK  221  A    between atoms: _567  and  _568
REMARK  222  A    between atoms: _567  and  _570
REMARK  223  A    between atoms: _570  and  _571
REMARK  224  A    between atoms: _574  and  _576
REMARK  225  A    between atoms: _576  and  _577
REMARK  226  A    between atoms: _576  and  _579
REMARK  227  A    between atoms: _579  and  _580
REMARK  228  A    between atoms: _585  and  _586
REMARK  229  A    between atoms: _588  and  _590
REMARK  230  A    between atoms: _590  and  _591
REMARK  231  A    between atoms: _590  and  _593
REMARK  232  A    between atoms: _593  and  _594
REMARK  233  A    between atoms: _596  and  _598
REMARK  234  A    between atoms: _598  and  _599
REMARK  235  A    between atoms: _598  and  _601
REMARK  236  A    between atoms: _601  and  _602
REMARK  237  A    between atoms: _608  and  _610
REMARK  238  A    between atoms: _610  and  _611
REMARK  239  A    between atoms: _610  and  _613
REMARK  240  A    between atoms: _613  and  _614
REMARK  241  A    between atoms: _617  and  _619
REMARK  242  A    between atoms: _619  and  _620
REMARK  243  A    between atoms: _619  and  _622
REMARK  244  A    between atoms: _622  and  _623
REMARK  245  A    between atoms: _625  and  _627
REMARK  246  A    between atoms: _627  and  _628
REMARK  247  A    between atoms: _627  and  _630
REMARK  248  A    between atoms: _630  and  _631
REMARK  249  A    between atoms: _636  and  _638
REMARK  250  A    between atoms: _638  and  _639
REMARK  251  A    between atoms: _638  and  _641
REMARK  252  A    between atoms: _641  and  _642
REMARK  253  A    between atoms: _647  and  _649
REMARK  254  A    between atoms: _649  and  _650
REMARK  255  A    between atoms: _649  and  _652
REMARK  256  A    between atoms: _652  and  _653
REMARK  257  A    between atoms: _656  and  _658
REMARK  258  A    between atoms: _658  and  _659
REMARK  259  A    between atoms: _662  and  _664
REMARK  260  A    between atoms: _664  and  _665
REMARK  261  A    between atoms: _664  and  _667
REMARK  262  A    between atoms: _667  and  _668
REMARK  263  A    between atoms: _673  and  _674
REMARK  264  A    between atoms: _676  and  _678
REMARK  265  A    between atoms: _678  and  _679
REMARK  266  A    between atoms: _678  and  _681
REMARK  267  A    between atoms: _681  and  _682
REMARK  268  A    between atoms: _687  and  _688
REMARK  269  A    between atoms: _690  and  _692
REMARK  270  A    between atoms: _692  and  _693
REMARK  271  A    between atoms: _692  and  _695
REMARK  272  A    between atoms: _698  and  _700
REMARK  273  A    between atoms: _700  and  _701
REMARK  274  A    between atoms: _700  and  _703
REMARK  275  A    between atoms: _703  and  _704
REMARK  276  A    between atoms: _709  and  _711
REMARK  277  A    between atoms: _711  and  _712
REMARK  278  A    between atoms: _715  and  _717
REMARK  279  A    between atoms: _717  and  _718
REMARK  280  A    between atoms: _717  and  _720
REMARK  281  A    between atoms: _720  and  _721
REMARK  282  A    between atoms: _721  and  _722
REMARK  283  A    between atoms: _722  and  _723
REMARK  284  A    between atoms: _732  and  _734
REMARK  285  A    between atoms: _734  and  _735
REMARK  286  A    between atoms: _734  and  _737
REMARK  287  A    between atoms: _737  and  _738
REMARK  288  A    between atoms: _741  and  _743
REMARK  289  A    between atoms: _743  and  _744
REMARK  290  A    between atoms: _743  and  _746
REMARK  291  A    between atoms: _746  and  _747
REMARK  292  A    between atoms: _750  and  _752
REMARK  293  A    between atoms: _752  and  _753
REMARK  294  A    between atoms: _752  and  _755
REMARK  295  A    between atoms: _755  and  _756
REMARK  296  A    between atoms: _797  and  _800
REMARK                            x       y       z     vdW  Elec       q    Type
REMARK                         _______ _______ _______ _____ _____    ______ ____
ROOT
ATOM      1  O   HOH     1      -3.243  18.036   5.417  0.00  0.00    +0.000 OA
ENDROOT
TORSDOF 0
REMARK  Name = ../refined-set-2016/1b1h/1b1h_pocket.pdb
REMARK  296 active torsions:
REMARK  status: ('A' for Active; 'I' for Inactive)
REMARK    1  A    between atoms: _1  and  _3
REMARK    2  A    between atoms: _3  and  _4
REMARK    3  A    between atoms: _3  and  _6
REMARK    4  A    between atoms: _6  and  _7
REMARK    5  A    between atoms: _12  and  _14
REMARK    6  A    between atoms: _14  and  _15
REMARK    7  A    between atoms: _17  and  _19
REMARK    8  A    between atoms: _19  and  _20
REMARK    9  A    between atoms: _19  and  _22
REMARK   10  A    between atoms: _22  and  _23
REMARK   11  A    between atoms: _25  and  _27
REMARK   12  A    between atoms: _27  and  _28
REMARK   13  A    between atoms: _27  and  _30
REMARK   14  A    between atoms: _30  and  _31
REMARK   15  A    between atoms: _31  and  _32
REMARK   16  A    between atoms: _37  and  _39
REMARK   17  A    between atoms: _39  and  _40
REMARK   18  A    between atoms: _39  and  _42
REMARK   19  A    between atoms: _42  and  _43
REMARK   20  A    between atoms: _46  and  _48
REMARK   21  A    between atoms: _48  and  _49
REMARK   22  A    between atoms: _48  and  _51
REMARK   23  A    between atoms: _51  and  _52
REMARK   24  A    between atoms: _52  and  _53
REMARK   25  A    between atoms: _56  and  _58
REMARK   26  A    between atoms: _58  and  _59
REMARK   27  A    between atoms: _61  and  _63
REMARK   28  A    between atoms: _63  and  _64
REMARK   29  A    between atoms: _63  and  _66
REMARK   30  A    between atoms: _70  and  _71
REMARK   31  A    between atoms: _76  and  _78
REMARK   32  A    between atoms: _78  and  _79
REMARK   33  A    between atoms: _78  and  _81
REMARK   34  A    between atoms: _81  and  _82
REMARK   35  A    between atoms: _82  and  _83
REMARK   36  A    between atoms: _86  and  _88
REMARK   37  A    between atoms: _88  and  _89
REMARK   38  A    between atoms: _88  and  _91
REMARK   39  A    between atoms: _91  and  _92
REMARK   40  A    between atoms: _94  and  _96
REMARK   41  A    between atoms: _96  and  _97
REMARK   42  A    between atoms: _96  and  _99
REMARK   43  A    between atoms: _99  and  _100
REMARK   44  A    between atoms: _105  and  _107
REMARK   45  A    between atoms: _107  and  _108
REMARK   46  A    between atoms: _107  and  _110
REMARK   47  A    between atoms: _110  and  _111
REMARK   48  A    between atoms: _111  and  _112
REMARK   49  A    between atoms: _112  and  _113
REMARK   50  A    between atoms: _123  and  _124
REMARK   51  A    between atoms: _129  and  _131
REMARK   52  A    between atoms: _131  and  _132
REMARK   53  A    between atoms: _131  and  _134
REMARK   54  A    between atoms: _134  and  _135
REMARK   55  A    between atoms: _140  and  _141
REMARK   56  A    between atoms: _143  and  _145
REMARK   57  A    between atoms: _145  and  _146
REMARK   58  A    between atoms: _145  and  _148
REMARK   59  A    between atoms: _148  and  _149
REMARK   60  A    between atoms: _154  and  _155
REMARK   61  A    between atoms: _157  and  _159
REMARK   62  A    between atoms: _159  and  _160
REMARK   63  A    between atoms: _159  and  _162
REMARK   64  A    between atoms: _165  and  _167
REMARK   65  A    between atoms: _167  and  _168
REMARK   66  A    between atoms: _167  and  _170
REMARK   67  A    between atoms: _170  and  _171
REMARK   68  A    between atoms: _177  and  _178
REMARK   69  A    between atoms: _183  and  _185
REMARK   70  A    between atoms: _185  and  _186
REMARK   71  A    between atoms: _185  and  _188
REMARK   72  A    between atoms: _188  and  _189
REMARK   73  A    between atoms: _191  and  _193
REMARK   74  A    between atoms: _193  and  _194
REMARK   75  A    between atoms: _193  and  _196
REMARK   76  A    between atoms: _196  and  _197
REMARK   77  A    between atoms: _197  and  _198
REMARK   78  A    between atoms: _201  and  _203
REMARK   79  A    between atoms: _203  and  _204
REMARK   80  A    between atoms: _203  and  _206
REMARK   81  A    between atoms: _206  and  _207
REMARK   82  A    between atoms: _212  and  _213
REMARK   83  A    between atoms: _215  and  _217
REMARK   84  A    between atoms: _217  and  _218
REMARK   85  A    between atoms: _217  and  _220
REMARK   86  A    between atoms: _220  and  _221
REMARK   87  A    between atoms: _226  and  _228
REMARK   88  A    between atoms: _228  and  _229
REMARK   89  A    between atoms: _228  and  _231
REMARK   90  A    between atoms: _231  and  _232
REMARK   91  A    between atoms: _237  and  _239
REMARK   92  A    between atoms: _239  and  _240
REMARK   93  A    between atoms: _239  and  _242
REMARK   94  A    between atoms: _242  and  _243
REMARK   95  A    between atoms: _243  and  _244
REMARK   96  A    between atoms: _246  and  _248
REMARK   97  A    between atoms: _248  and  _249
REMARK   98  A    between atoms: _248  and  _251
REMARK   99  A    between atoms: _251  and  _252
REMARK  100  A    between atoms: _257  and  _258
REMARK  101  A    between atoms: _260  and  _262
REMARK  102  A    between atoms: _262  and  _263
REMARK  103  A    between atoms: _262  and  _265
REMARK  104  A    between atoms: _265  and  _266
REMARK  105  A    between atoms: _269  and  _271
REMARK  106  A    between atoms: _271  and  _272
REMARK  107  A    between atoms: _271  and  _274
REMARK  108  A    between atoms: _274  and  _275
REMARK  109  A    between atoms: _275  and  _558
REMARK  110  A    between atoms: _276  and  _278
REMARK  111  A    between atoms: _278  and  _279
REMARK  112  A    between atoms: _278  and  _281
REMARK  113  A    between atoms: _281  and  _282
REMARK  114  A    between atoms: _285  and  _287
REMARK  115  A    between atoms: _287  and  _288
REMARK  116  A    between atoms: _287  and  _290
REMARK  117  A    between atoms: _290  and  _291
REMARK  118  A    between atoms: _296  and  _297
REMARK  119  A    between atoms: _299  and  _301
REMARK  120  A    between atoms: _301  and  _302
REMARK  121  A    between atoms: _301  and  _304
REMARK  122  A    between atoms: _304  and  _305
REMARK  123  A    between atoms: _310  and  _311
REMARK  124  A    between atoms: _313  and  _315
REMARK  125  A    between atoms: _315  and  _316
REMARK  126  A    between atoms: _315  and  _318
REMARK  127  A    between atoms: _318  and  _319
REMARK  128  A    between atoms: _319  and  _320
REMARK  129  A    between atoms: _323  and  _325
REMARK  130  A    between atoms: _325  and  _326
REMARK  131  A    between atoms: _325  and  _328
REMARK  132  A    between atoms: _328  and  _329
REMARK  133  A    between atoms: _334  and  _335
REMARK  134  A    between atoms: _337  and  _339
REMARK  135  A    between atoms: _339  and  _340
REMARK  136  A    between atoms: _339  and  _342
REMARK  137  A    between atoms: _342  and  _343
REMARK  138  A    between atoms: _348  and  _350
REMARK  139  A    between atoms: _350  and  _351
REMARK  140  A    between atoms: _350  and  _353
REMARK  141  A    between atoms: _353  and  _354
REMARK  142  A    between atoms: _357  and  _359
REMARK  143  A    between atoms: _359  and  _360
REMARK  144  A    between atoms: _359  and  _362
REMARK  145  A    between atoms: _362  and  _363
REMARK  146  A    between atoms: _368  and  _370
REMARK  147  A    between atoms: _370  and  _371
REMARK  148  A    between atoms: _370  and  _373
REMARK  149  A    between atoms: _373  and  _374
REMARK  150  A    between atoms: _384  and  _386
REMARK  151  A    between atoms: _386  and  _387
REMARK  152  A    between atoms: _386  and  _389
REMARK  153  A    between atoms: _389  and  _390
REMARK  154  A    between atoms: _390  and  _391
REMARK  155  A    between atoms: _391  and  _392
REMARK  156  A    between atoms: _392  and  _393
REMARK  157  A    between atoms: _397  and  _399
REMARK  158  A    between atoms: _399  and  _400
REMARK  159  A    between atoms: _399  and  _402
REMARK  160  A    between atoms: _402  and  _403
REMARK  161  A    between atoms: _406  and  _408
REMARK  162  A    between atoms: _408  and  _409
REMARK  163  A    between atoms: _408  and  _411
REMARK  164  A    between atoms: _411  and  _412
REMARK  165  A    between atoms: _418  and  _420
REMARK  166  A    between atoms: _420  and  _421
REMARK  167  A    between atoms: _420  and  _423
REMARK  168  A    between atoms: _423  and  _424
REMARK  169  A    between atoms: _427  and  _429
REMARK  170  A    between atoms: _429  and  _430
REMARK  171  A    between atoms: _429  and  _432
REMARK  172  A    between atoms: _432  and  _433
REMARK  173  A    between atoms: _436  and  _438
REMARK  174  A    between atoms: _438  and  _439
REMARK  175  A    between atoms: _438  and  _441
REMARK  176  A    between atoms: _441  and  _442
REMARK  177  A    between atoms: _445  and  _447
REMARK  178  A    between atoms: _447  and  _448
REMARK  179  A    between atoms: _447  and  _450
REMARK  180  A    between atoms: _450  and  _451
REMARK  181  A    between atoms: _451  and  _452
REMARK  182  A    between atoms: _452  and  _453
REMARK  183  A    between atoms: _462  and  _464
REMARK  184  A    between atoms: _464  and  _465
REMARK  185  A    between atoms: _464  and  _467
REMARK  186  A    between atoms: _467  and  _468
REMARK  187  A    between atoms: _473  and  _475
REMARK  188  A    between atoms: _475  and  _476
REMARK  189  A    between atoms: _475  and  _478
REMARK  190  A    between atoms: _478  and  _479
REMARK  191  A    between atoms: _479  and  _480
REMARK  192  A    between atoms: _485  and  _487
REMARK  193  A    between atoms: _487  and  _488
REMARK  194  A    between atoms: _490  and  _492
REMARK  195  A    between atoms: _492  and  _493
REMARK  196  A    between atoms: _492  and  _495
REMARK  197  A    between atoms: _495  and  _496
REMARK  198  A    between atoms: _502  and  _504
REMARK  199  A    between atoms: _504  and  _505
REMARK  200  A    between atoms: _508  and  _510
REMARK  201  A    between atoms: _510  and  _511
REMARK  202  A    between atoms: _510  and  _513
REMARK  203  A    between atoms: _513  and  _514
REMARK  204  A    between atoms: _514  and  _515
REMARK  205  A    between atoms: _515  and  _516
REMARK  206  A    between atoms: _525  and  _527
REMARK  207  A    between atoms: _527  and  _528
REMARK  208  A    between atoms: _531  and  _533
REMARK  209  A    between atoms: _533  and  _534
REMARK  210  A    between atoms: _536  and  _538
REMARK  211  A    between atoms: _538  and  _539
REMARK  212  A    between atoms: _538  and  _541
REMARK  213  A    between atoms: _541  and  _542
REMARK  214  A    between atoms: _552  and  _554
REMARK  215  A    between atoms: _554  and  _555
REMARK  216  A    between atoms: _554  and  _557
REMARK  217  A    between atoms: _557  and  _558
REMARK  218  A    between atoms: _559  and  _561
REMARK  219  A    between atoms: _561  and  _562
REMARK  220  A    between atoms: _565  and  _567
REMARK  221  A    between atoms: _567  and  _568
REMARK  222  A    between atoms: _567  and  _570
REMARK  223  A    between atoms: _570  and  _571
REMARK  224  A    between atoms: _574  and  _576
REMARK  225  A    between atoms: _576  and  _577
REMARK  226  A    between atoms: _576  and  _579
REMARK  227  A    between atoms: _579  and  _580
REMARK  228  A    between atoms: _585  and  _586
REMARK  229  A    between atoms: _588  and  _590
REMARK  230  A    between atoms: _590  and  _591
REMARK  231  A    between atoms: _590  and  _593
REMARK  232  A    between atoms: _593  and  _594
REMARK  233  A    between atoms: _596  and  _598
REMARK  234  A    between atoms: _598  and  _599
REMARK  235  A    between atoms: _598  and  _601
REMARK  236  A    between atoms: _601  and  _602
REMARK  237  A    between atoms: _608  and  _610
REMARK  238  A    between atoms: _610  and  _611
REMARK  239  A    between atoms: _610  and  _613
REMARK  240  A    between atoms: _613  and  _614
REMARK  241  A    between atoms: _617  and  _619
REMARK  242  A    between atoms: _619  and  _620
REMARK  243  A    between atoms: _619  and  _622
REMARK  244  A    between atoms: _622  and  _623
REMARK  245  A    between atoms: _625  and  _627
REMARK  246  A    between atoms: _627  and  _628
REMARK  247  A    between atoms: _627  and  _630
REMARK  248  A    between atoms: _630  and  _631
REMARK  249  A    between atoms: _636  and  _638
REMARK  250  A    between atoms: _638  and  _639
REMARK  251  A    between atoms: _638  and  _641
REMARK  252  A    between atoms: _641  and  _642
REMARK  253  A    between atoms: _647  and  _649
REMARK  254  A    between atoms: _649  and  _650
REMARK  255  A    between atoms: _649  and  _652
REMARK  256  A    between atoms: _652  and  _653
REMARK  257  A    between atoms: _656  and  _658
REMARK  258  A    between atoms: _658  and  _659
REMARK  259  A    between atoms: _662  and  _664
REMARK  260  A    between atoms: _664  and  _665
REMARK  261  A    between atoms: _664  and  _667
REMARK  262  A    between atoms: _667  and  _668
REMARK  263  A    between atoms: _673  and  _674
REMARK  264  A    between atoms: _676  and  _678
REMARK  265  A    between atoms: _678  and  _679
REMARK  266  A    between atoms: _678  and  _681
REMARK  267  A    between atoms: _681  and  _682
REMARK  268  A    between atoms: _687  and  _688
REMARK  269  A    between atoms: _690  and  _692
REMARK  270  A    between atoms: _692  and  _693
REMARK  271  A    between atoms: _692  and  _695
REMARK  272  A    between atoms: _698  and  _700
REMARK  273  A    between atoms: _700  and  _701
REMARK  274  A    between atoms: _700  and  _703
REMARK  275  A    between atoms: _703  and  _704
REMARK  276  A    between atoms: _709  and  _711
REMARK  277  A    between atoms: _711  and  _712
REMARK  278  A    between atoms: _715  and  _717
REMARK  279  A    between atoms: _717  and  _718
REMARK  280  A    between atoms: _717  and  _720
REMARK  281  A    between atoms: _720  and  _721
REMARK  282  A    between atoms: _721  and  _722
REMARK  283  A    between atoms: _722  and  _723
REMARK  284  A    between atoms: _732  and  _734
REMARK  285  A    between atoms: _734  and  _735
REMARK  286  A    between atoms: _734  and  _737
REMARK  287  A    between atoms: _737  and  _738
REMARK  288  A    between atoms: _741  and  _743
REMARK  289  A    between atoms: _743  and  _744
REMARK  290  A    between atoms: _743  and  _746
REMARK  291  A    between atoms: _746  and  _747
REMARK  292  A    between atoms: _750  and  _752
REMARK  293  A    between atoms: _752  and  _753
REMARK  294  A    between atoms: _752  and  _755
REMARK  295  A    between atoms: _755  and  _756
REMARK  296  A    between atoms: _797  and  _800
REMARK                            x       y       z     vdW  Elec       q    Type
REMARK                         _______ _______ _______ _____ _____    ______ ____
ROOT
ATOM      1  O   HOH     1      12.404  27.882  23.201  0.00  0.00    +0.000 OA
ENDROOT
TORSDOF 0
REMARK  Name = ../refined-set-2016/1b1h/1b1h_pocket.pdb
REMARK  296 active torsions:
REMARK  status: ('A' for Active; 'I' for Inactive)
REMARK    1  A    between atoms: _1  and  _3
REMARK    2  A    between atoms: _3  and  _4
REMARK    3  A    between atoms: _3  and  _6
REMARK    4  A    between atoms: _6  and  _7
REMARK    5  A    between atoms: _12  and  _14
REMARK    6  A    between atoms: _14  and  _15
REMARK    7  A    between atoms: _17  and  _19
REMARK    8  A    between atoms: _19  and  _20
REMARK    9  A    between atoms: _19  and  _22
REMARK   10  A    between atoms: _22  and  _23
REMARK   11  A    between atoms: _25  and  _27
REMARK   12  A    between atoms: _27  and  _28
REMARK   13  A    between atoms: _27  and  _30
REMARK   14  A    between atoms: _30  and  _31
REMARK   15  A    between atoms: _31  and  _32
REMARK   16  A    between atoms: _37  and  _39
REMARK   17  A    between atoms: _39  and  _40
REMARK   18  A    between atoms: _39  and  _42
REMARK   19  A    between atoms: _42  and  _43
REMARK   20  A    between atoms: _46  and  _48
REMARK   21  A    between atoms: _48  and  _49
REMARK   22  A    between atoms: _48  and  _51
REMARK   23  A    between atoms: _51  and  _52
REMARK   24  A    between atoms: _52  and  _53
REMARK   25  A    between atoms: _56  and  _58
REMARK   26  A    between atoms: _58  and  _59
REMARK   27  A    between atoms: _61  and  _63
REMARK   28  A    between atoms: _63  and  _64
REMARK   29  A    between atoms: _63  and  _66
REMARK   30  A    between atoms: _70  and  _71
REMARK   31  A    between atoms: _76  and  _78
REMARK   32  A    between atoms: _78  and  _79
REMARK   33  A    between atoms: _78  and  _81
REMARK   34  A    between atoms: _81  and  _82
REMARK   35  A    between atoms: _82  and  _83
REMARK   36  A    between atoms: _86  and  _88
REMARK   37  A    between atoms: _88  and  _89
REMARK   38  A    between atoms: _88  and  _91
REMARK   39  A    between atoms: _91  and  _92
REMARK   40  A    between atoms: _94  and  _96
REMARK   41  A    between atoms: _96  and  _97
REMARK   42  A    between atoms: _96  and  _99
REMARK   43  A    between atoms: _99  and  _100
REMARK   44  A    between atoms: _105  and  _107
REMARK   45  A    between atoms: _107  and  _108
REMARK   46  A    between atoms: _107  and  _110
REMARK   47  A    between atoms: _110  and  _111
REMARK   48  A    between atoms: _111  and  _112
REMARK   49  A    between atoms: _112  and  _113
REMARK   50  A    between atoms: _123  and  _124
REMARK   51  A    between atoms: _129  and  _131
REMARK   52  A    between atoms: _131  and  _132
REMARK   53  A    between atoms: _131  and  _134
REMARK   54  A    between atoms: _134  and  _135
REMARK   55  A    between atoms: _140  and  _141
REMARK   56  A    between atoms: _143  and  _145
REMARK   57  A    between atoms: _145  and  _146
REMARK   58  A    between atoms: _145  and  _148
REMARK   59  A    between atoms: _148  and  _149
REMARK   60  A    between atoms: _154  and  _155
REMARK   61  A    between atoms: _157  and  _159
REMARK   62  A    between atoms: _159  and  _160
REMARK   63  A    between atoms: _159  and  _162
REMARK   64  A    between atoms: _165  and  _167
REMARK   65  A    between atoms: _167  and  _168
REMARK   66  A    between atoms: _167  and  _170
REMARK   67  A    between atoms: _170  and  _171
REMARK   68  A    between atoms: _177  and  _178
REMARK   69  A    between atoms: _183  and  _185
REMARK   70  A    between atoms: _185  and  _186
REMARK   71  A    between atoms: _185  and  _188
REMARK   72  A    between atoms: _188  and  _189
REMARK   73  A    between atoms: _191  and  _193
REMARK   74  A    between atoms: _193  and  _194
REMARK   75  A    between atoms: _193  and  _196
REMARK   76  A    between atoms: _196  and  _197
REMARK   77  A    between atoms: _197  and  _198
REMARK   78  A    between atoms: _201  and  _203
REMARK   79  A    between atoms: _203  and  _204
REMARK   80  A    between atoms: _203  and  _206
REMARK   81  A    between atoms: _206  and  _207
REMARK   82  A    between atoms: _212  and  _213
REMARK   83  A    between atoms: _215  and  _217
REMARK   84  A    between atoms: _217  and  _218
REMARK   85  A    between atoms: _217  and  _220
REMARK   86  A    between atoms: _220  and  _221
REMARK   87  A    between atoms: _226  and  _228
REMARK   88  A    between atoms: _228  and  _229
REMARK   89  A    between atoms: _228  and  _231
REMARK   90  A    between atoms: _231  and  _232
REMARK   91  A    between atoms: _237  and  _239
REMARK   92  A    between atoms: _239  and  _240
REMARK   93  A    between atoms: _239  and  _242
REMARK   94  A    between atoms: _242  and  _243
REMARK   95  A    between atoms: _243  and  _244
REMARK   96  A    between atoms: _246  and  _248
REMARK   97  A    between atoms: _248  and  _249
REMARK   98  A    between atoms: _248  and  _251
REMARK   99  A    between atoms: _251  and  _252
REMARK  100  A    between atoms: _257  and  _258
REMARK  101  A    between atoms: _260  and  _262
REMARK  102  A    between atoms: _262  and  _263
REMARK  103  A    between atoms: _262  and  _265
REMARK  104  A    between atoms: _265  and  _266
REMARK  105  A    between atoms: _269  and  _271
REMARK  106  A    between atoms: _271  and  _272
REMARK  107  A    between atoms: _271  and  _274
REMARK  108  A    between atoms: _274  and  _275
REMARK  109  A    between atoms: _275  and  _558
REMARK  110  A    between atoms: _276  and  _278
REMARK  111  A    between atoms: _278  and  _279
REMARK  112  A    between atoms: _278  and  _281
REMARK  113  A    between atoms: _281  and  _282
REMARK  114  A    between atoms: _285  and  _287
REMARK  115  A    between atoms: _287  and  _288
REMARK  116  A    between atoms: _287  and  _290
REMARK  117  A    between atoms: _290  and  _291
REMARK  118  A    between atoms: _296  and  _297
REMARK  119  A    between atoms: _299  and  _301
REMARK  120  A    between atoms: _301  and  _302
REMARK  121  A    between atoms: _301  and  _304
REMARK  122  A    between atoms: _304  and  _305
REMARK  123  A    between atoms: _310  and  _311
REMARK  124  A    between atoms: _313  and  _315
REMARK  125  A    between atoms: _315  and  _316
REMARK  126  A    between atoms: _315  and  _318
REMARK  127  A    between atoms: _318  and  _319
REMARK  128  A    between atoms: _319  and  _320
REMARK  129  A    between atoms: _323  and  _325
REMARK  130  A    between atoms: _325  and  _326
REMARK  131  A    between atoms: _325  and  _328
REMARK  132  A    between atoms: _328  and  _329
REMARK  133  A    between atoms: _334  and  _335
REMARK  134  A    between atoms: _337  and  _339
REMARK  135  A    between atoms: _339  and  _340
REMARK  136  A    between atoms: _339  and  _342
REMARK  137  A    between atoms: _342  and  _343
REMARK  138  A    between atoms: _348  and  _350
REMARK  139  A    between atoms: _350  and  _351
REMARK  140  A    between atoms: _350  and  _353
REMARK  141  A    between atoms: _353  and  _354
REMARK  142  A    between atoms: _357  and  _359
REMARK  143  A    between atoms: _359  and  _360
REMARK  144  A    between atoms: _359  and  _362
REMARK  145  A    between atoms: _362  and  _363
REMARK  146  A    between atoms: _368  and  _370
REMARK  147  A    between atoms: _370  and  _371
REMARK  148  A    between atoms: _370  and  _373
REMARK  149  A    between atoms: _373  and  _374
REMARK  150  A    between atoms: _384  and  _386
REMARK  151  A    between atoms: _386  and  _387
REMARK  152  A    between atoms: _386  and  _389
REMARK  153  A    between atoms: _389  and  _390
REMARK  154  A    between atoms: _390  and  _391
REMARK  155  A    between atoms: _391  and  _392
REMARK  156  A    between atoms: _392  and  _393
REMARK  157  A    between atoms: _397  and  _399
REMARK  158  A    between atoms: _399  and  _400
REMARK  159  A    between atoms: _399  and  _402
REMARK  160  A    between atoms: _402  and  _403
REMARK  161  A    between atoms: _406  and  _408
REMARK  162  A    between atoms: _408  and  _409
REMARK  163  A    between atoms: _408  and  _411
REMARK  164  A    between atoms: _411  and  _412
REMARK  165  A    between atoms: _418  and  _420
REMARK  166  A    between atoms: _420  and  _421
REMARK  167  A    between atoms: _420  and  _423
REMARK  168  A    between atoms: _423  and  _424
REMARK  169  A    between atoms: _427  and  _429
REMARK  170  A    between atoms: _429  and  _430
REMARK  171  A    between atoms: _429  and  _432
REMARK  172  A    between atoms: _432  and  _433
REMARK  173  A    between atoms: _436  and  _438
REMARK  174  A    between atoms: _438  and  _439
REMARK  175  A    between atoms: _438  and  _441
REMARK  176  A    between atoms: _441  and  _442
REMARK  177  A    between atoms: _445  and  _447
REMARK  178  A    between atoms: _447  and  _448
REMARK  179  A    between atoms: _447  and  _450
REMARK  180  A    between atoms: _450  and  _451
REMARK  181  A    between atoms: _451  and  _452
REMARK  182  A    between atoms: _452  and  _453
REMARK  183  A    between atoms: _462  and  _464
REMARK  184  A    between atoms: _464  and  _465
REMARK  185  A    between atoms: _464  and  _467
REMARK  186  A    between atoms: _467  and  _468
REMARK  187  A    between atoms: _473  and  _475
REMARK  188  A    between atoms: _475  and  _476
REMARK  189  A    between atoms: _475  and  _478
REMARK  190  A    between atoms: _478  and  _479
REMARK  191  A    between atoms: _479  and  _480
REMARK  192  A    between atoms: _485  and  _487
REMARK  193  A    between atoms: _487  and  _488
REMARK  194  A    between atoms: _490  and  _492
REMARK  195  A    between atoms: _492  and  _493
REMARK  196  A    between atoms: _492  and  _495
REMARK  197  A    between atoms: _495  and  _496
REMARK  198  A    between atoms: _502  and  _504
REMARK  199  A    between atoms: _504  and  _505
REMARK  200  A    between atoms: _508  and  _510
REMARK  201  A    between atoms: _510  and  _511
REMARK  202  A    between atoms: _510  and  _513
REMARK  203  A    between atoms: _513  and  _514
REMARK  204  A    between atoms: _514  and  _515
REMARK  205  A    between atoms: _515  and  _516
REMARK  206  A    between atoms: _525  and  _527
REMARK  207  A    between atoms: _527  and  _528
REMARK  208  A    between atoms: _531  and  _533
REMARK  209  A    between atoms: _533  and  _534
REMARK  210  A    between atoms: _536  and  _538
REMARK  211  A    between atoms: _538  and  _539
REMARK  212  A    between atoms: _538  and  _541
REMARK  213  A    between atoms: _541  and  _542
REMARK  214  A    between atoms: _552  and  _554
REMARK  215  A    between atoms: _554  and  _555
REMARK  216  A    between atoms: _554  and  _557
REMARK  217  A    between atoms: _557  and  _558
REMARK  218  A    between atoms: _559  and  _561
REMARK  219  A    between atoms: _561  and  _562
REMARK  220  A    between atoms: _565  and  _567
REMARK  221  A    between atoms: _567  and  _568
REMARK  222  A    between atoms: _567  and  _570
REMARK  223  A    between atoms: _570  and  _571
REMARK  224  A    between atoms: _574  and  _576
REMARK  225  A    between atoms: _576  and  _577
REMARK  226  A    between atoms: _576  and  _579
REMARK  227  A    between atoms: _579  and  _580
REMARK  228  A    between atoms: _585  and  _586
REMARK  229  A    between atoms: _588  and  _590
REMARK  230  A    between atoms: _590  and  _591
REMARK  231  A    between atoms: _590  and  _593
REMARK  232  A    between atoms: _593  and  _594
REMARK  233  A    between atoms: _596  and  _598
REMARK  234  A    between atoms: _598  and  _599
REMARK  235  A    between atoms: _598  and  _601
REMARK  236  A    between atoms: _601  and  _602
REMARK  237  A    between atoms: _608  and  _610
REMARK  238  A    between atoms: _610  and  _611
REMARK  239  A    between atoms: _610  and  _613
REMARK  240  A    between atoms: _613  and  _614
REMARK  241  A    between atoms: _617  and  _619
REMARK  242  A    between atoms: _619  and  _620
REMARK  243  A    between atoms: _619  and  _622
REMARK  244  A    between atoms: _622  and  _623
REMARK  245  A    between atoms: _625  and  _627
REMARK  246  A    between atoms: _627  and  _628
REMARK  247  A    between atoms: _627  and  _630
REMARK  248  A    between atoms: _630  and  _631
REMARK  249  A    between atoms: _636  and  _638
REMARK  250  A    between atoms: _638  and  _639
REMARK  251  A    between atoms: _638  and  _641
REMARK  252  A    between atoms: _641  and  _642
REMARK  253  A    between atoms: _647  and  _649
REMARK  254  A    between atoms: _649  and  _650
REMARK  255  A    between atoms: _649  and  _652
REMARK  256  A    between atoms: _652  and  _653
REMARK  257  A    between atoms: _656  and  _658
REMARK  258  A    between atoms: _658  and  _659
REMARK  259  A    between atoms: _662  and  _664
REMARK  260  A    between atoms: _664  and  _665
REMARK  261  A    between atoms: _664  and  _667
REMARK  262  A    between atoms: _667  and  _668
REMARK  263  A    between atoms: _673  and  _674
REMARK  264  A    between atoms: _676  and  _678
REMARK  265  A    between atoms: _678  and  _679
REMARK  266  A    between atoms: _678  and  _681
REMARK  267  A    between atoms: _681  and  _682
REMARK  268  A    between atoms: _687  and  _688
REMARK  269  A    between atoms: _690  and  _692
REMARK  270  A    between atoms: _692  and  _693
REMARK  271  A    between atoms: _692  and  _695
REMARK  272  A    between atoms: _698  and  _700
REMARK  273  A    between atoms: _700  and  _701
REMARK  274  A    between atoms: _700  and  _703
REMARK  275  A    between atoms: _703  and  _704
REMARK  276  A    between atoms: _709  and  _711
REMARK  277  A    between atoms: _711  and  _712
REMARK  278  A    between atoms: _715  and  _717
REMARK  279  A    between atoms: _717  and  _718
REMARK  280  A    between atoms: _717  and  _720
REMARK  281  A    between atoms: _720  and  _721
REMARK  282  A    between atoms: _721  and  _722
REMARK  283  A    between atoms: _722  and  _723
REMARK  284  A    between atoms: _732  and  _734
REMARK  285  A    between atoms: _734  and  _735
REMARK  286  A    between atoms: _734  and  _737
REMARK  287  A    between atoms: _737  and  _738
REMARK  288  A    between atoms: _741  and  _743
REMARK  289  A    between atoms: _743  and  _744
REMARK  290  A    between atoms: _743  and  _746
REMARK  291  A    between atoms: _746  and  _747
REMARK  292  A    between atoms: _750  and  _752
REMARK  293  A    between atoms: _752  and  _753
REMARK  294  A    between atoms: _752  and  _755
REMARK  295  A    between atoms: _755  and  _756
REMARK  296  A    between atoms: _797  and  _800
REMARK                            x       y       z     vdW  Elec       q    Type
REMARK                         _______ _______ _______ _____ _____    ______ ____
ROOT
ATOM      1  O   HOH     1      -8.000  16.401  16.704  0.00  0.00    +0.000 OA
ENDROOT
TORSDOF 0
REMARK  Name = ../refined-set-2016/1b1h/1b1h_pocket.pdb
REMARK  296 active torsions:
REMARK  status: ('A' for Active; 'I' for Inactive)
REMARK    1  A    between atoms: _1  and  _3
REMARK    2  A    between atoms: _3  and  _4
REMARK    3  A    between atoms: _3  and  _6
REMARK    4  A    between atoms: _6  and  _7
REMARK    5  A    between atoms: _12  and  _14
REMARK    6  A    between atoms: _14  and  _15
REMARK    7  A    between atoms: _17  and  _19
REMARK    8  A    between atoms: _19  and  _20
REMARK    9  A    between atoms: _19  and  _22
REMARK   10  A    between atoms: _22  and  _23
REMARK   11  A    between atoms: _25  and  _27
REMARK   12  A    between atoms: _27  and  _28
REMARK   13  A    between atoms: _27  and  _30
REMARK   14  A    between atoms: _30  and  _31
REMARK   15  A    between atoms: _31  and  _32
REMARK   16  A    between atoms: _37  and  _39
REMARK   17  A    between atoms: _39  and  _40
REMARK   18  A    between atoms: _39  and  _42
REMARK   19  A    between atoms: _42  and  _43
REMARK   20  A    between atoms: _46  and  _48
REMARK   21  A    between atoms: _48  and  _49
REMARK   22  A    between atoms: _48  and  _51
REMARK   23  A    between atoms: _51  and  _52
REMARK   24  A    between atoms: _52  and  _53
REMARK   25  A    between atoms: _56  and  _58
REMARK   26  A    between atoms: _58  and  _59
REMARK   27  A    between atoms: _61  and  _63
REMARK   28  A    between atoms: _63  and  _64
REMARK   29  A    between atoms: _63  and  _66
REMARK   30  A    between atoms: _70  and  _71
REMARK   31  A    between atoms: _76  and  _78
REMARK   32  A    between atoms: _78  and  _79
REMARK   33  A    between atoms: _78  and  _81
REMARK   34  A    between atoms: _81  and  _82
REMARK   35  A    between atoms: _82  and  _83
REMARK   36  A    between atoms: _86  and  _88
REMARK   37  A    between atoms: _88  and  _89
REMARK   38  A    between atoms: _88  and  _91
REMARK   39  A    between atoms: _91  and  _92
REMARK   40  A    between atoms: _94  and  _96
REMARK   41  A    between atoms: _96  and  _97
REMARK   42  A    between atoms: _96  and  _99
REMARK   43  A    between atoms: _99  and  _100
REMARK   44  A    between atoms: _105  and  _107
REMARK   45  A    between atoms: _107  and  _108
REMARK   46  A    between atoms: _107  and  _110
REMARK   47  A    between atoms: _110  and  _111
REMARK   48  A    between atoms: _111  and  _112
REMARK   49  A    between atoms: _112  and  _113
REMARK   50  A    between atoms: _123  and  _124
REMARK   51  A    between atoms: _129  and  _131
REMARK   52  A    between atoms: _131  and  _132
REMARK   53  A    between atoms: _131  and  _134
REMARK   54  A    between atoms: _134  and  _135
REMARK   55  A    between atoms: _140  and  _141
REMARK   56  A    between atoms: _143  and  _145
REMARK   57  A    between atoms: _145  and  _146
REMARK   58  A    between atoms: _145  and  _148
REMARK   59  A    between atoms: _148  and  _149
REMARK   60  A    between atoms: _154  and  _155
REMARK   61  A    between atoms: _157  and  _159
REMARK   62  A    between atoms: _159  and  _160
REMARK   63  A    between atoms: _159  and  _162
REMARK   64  A    between atoms: _165  and  _167
REMARK   65  A    between atoms: _167  and  _168
REMARK   66  A    between atoms: _167  and  _170
REMARK   67  A    between atoms: _170  and  _171
REMARK   68  A    between atoms: _177  and  _178
REMARK   69  A    between atoms: _183  and  _185
REMARK   70  A    between atoms: _185  and  _186
REMARK   71  A    between atoms: _185  and  _188
REMARK   72  A    between atoms: _188  and  _189
REMARK   73  A    between atoms: _191  and  _193
REMARK   74  A    between atoms: _193  and  _194
REMARK   75  A    between atoms: _193  and  _196
REMARK   76  A    between atoms: _196  and  _197
REMARK   77  A    between atoms: _197  and  _198
REMARK   78  A    between atoms: _201  and  _203
REMARK   79  A    between atoms: _203  and  _204
REMARK   80  A    between atoms: _203  and  _206
REMARK   81  A    between atoms: _206  and  _207
REMARK   82  A    between atoms: _212  and  _213
REMARK   83  A    between atoms: _215  and  _217
REMARK   84  A    between atoms: _217  and  _218
REMARK   85  A    between atoms: _217  and  _220
REMARK   86  A    between atoms: _220  and  _221
REMARK   87  A    between atoms: _226  and  _228
REMARK   88  A    between atoms: _228  and  _229
REMARK   89  A    between atoms: _228  and  _231
REMARK   90  A    between atoms: _231  and  _232
REMARK   91  A    between atoms: _237  and  _239
REMARK   92  A    between atoms: _239  and  _240
REMARK   93  A    between atoms: _239  and  _242
REMARK   94  A    between atoms: _242  and  _243
REMARK   95  A    between atoms: _243  and  _244
REMARK   96  A    between atoms: _246  and  _248
REMARK   97  A    between atoms: _248  and  _249
REMARK   98  A    between atoms: _248  and  _251
REMARK   99  A    between atoms: _251  and  _252
REMARK  100  A    between atoms: _257  and  _258
REMARK  101  A    between atoms: _260  and  _262
REMARK  102  A    between atoms: _262  and  _263
REMARK  103  A    between atoms: _262  and  _265
REMARK  104  A    between atoms: _265  and  _266
REMARK  105  A    between atoms: _269  and  _271
REMARK  106  A    between atoms: _271  and  _272
REMARK  107  A    between atoms: _271  and  _274
REMARK  108  A    between atoms: _274  and  _275
REMARK  109  A    between atoms: _275  and  _558
REMARK  110  A    between atoms: _276  and  _278
REMARK  111  A    between atoms: _278  and  _279
REMARK  112  A    between atoms: _278  and  _281
REMARK  113  A    between atoms: _281  and  _282
REMARK  114  A    between atoms: _285  and  _287
REMARK  115  A    between atoms: _287  and  _288
REMARK  116  A    between atoms: _287  and  _290
REMARK  117  A    between atoms: _290  and  _291
REMARK  118  A    between atoms: _296  and  _297
REMARK  119  A    between atoms: _299  and  _301
REMARK  120  A    between atoms: _301  and  _302
REMARK  121  A    between atoms: _301  and  _304
REMARK  122  A    between atoms: _304  and  _305
REMARK  123  A    between atoms: _310  and  _311
REMARK  124  A    between atoms: _313  and  _315
REMARK  125  A    between atoms: _315  and  _316
REMARK  126  A    between atoms: _315  and  _318
REMARK  127  A    between atoms: _318  and  _319
REMARK  128  A    between atoms: _319  and  _320
REMARK  129  A    between atoms: _323  and  _325
REMARK  130  A    between atoms: _325  and  _326
REMARK  131  A    between atoms: _325  and  _328
REMARK  132  A    between atoms: _328  and  _329
REMARK  133  A    between atoms: _334  and  _335
REMARK  134  A    between atoms: _337  and  _339
REMARK  135  A    between atoms: _339  and  _340
REMARK  136  A    between atoms: _339  and  _342
REMARK  137  A    between atoms: _342  and  _343
REMARK  138  A    between atoms: _348  and  _350
REMARK  139  A    between atoms: _350  and  _351
REMARK  140  A    between atoms: _350  and  _353
REMARK  141  A    between atoms: _353  and  _354
REMARK  142  A    between atoms: _357  and  _359
REMARK  143  A    between atoms: _359  and  _360
REMARK  144  A    between atoms: _359  and  _362
REMARK  145  A    between atoms: _362  and  _363
REMARK  146  A    between atoms: _368  and  _370
REMARK  147  A    between atoms: _370  and  _371
REMARK  148  A    between atoms: _370  and  _373
REMARK  149  A    between atoms: _373  and  _374
REMARK  150  A    between atoms: _384  and  _386
REMARK  151  A    between atoms: _386  and  _387
REMARK  152  A    between atoms: _386  and  _389
REMARK  153  A    between atoms: _389  and  _390
REMARK  154  A    between atoms: _390  and  _391
REMARK  155  A    between atoms: _391  and  _392
REMARK  156  A    between atoms: _392  and  _393
REMARK  157  A    between atoms: _397  and  _399
REMARK  158  A    between atoms: _399  and  _400
REMARK  159  A    between atoms: _399  and  _402
REMARK  160  A    between atoms: _402  and  _403
REMARK  161  A    between atoms: _406  and  _408
REMARK  162  A    between atoms: _408  and  _409
REMARK  163  A    between atoms: _408  and  _411
REMARK  164  A    between atoms: _411  and  _412
REMARK  165  A    between atoms: _418  and  _420
REMARK  166  A    between atoms: _420  and  _421
REMARK  167  A    between atoms: _420  and  _423
REMARK  168  A    between atoms: _423  and  _424
REMARK  169  A    between atoms: _427  and  _429
REMARK  170  A    between atoms: _429  and  _430
REMARK  171  A    between atoms: _429  and  _432
REMARK  172  A    between atoms: _432  and  _433
REMARK  173  A    between atoms: _436  and  _438
REMARK  174  A    between atoms: _438  and  _439
REMARK  175  A    between atoms: _438  and  _441
REMARK  176  A    between atoms: _441  and  _442
REMARK  177  A    between atoms: _445  and  _447
REMARK  178  A    between atoms: _447  and  _448
REMARK  179  A    between atoms: _447  and  _450
REMARK  180  A    between atoms: _450  and  _451
REMARK  181  A    between atoms: _451  and  _452
REMARK  182  A    between atoms: _452  and  _453
REMARK  183  A    between atoms: _462  and  _464
REMARK  184  A    between atoms: _464  and  _465
REMARK  185  A    between atoms: _464  and  _467
REMARK  186  A    between atoms: _467  and  _468
REMARK  187  A    between atoms: _473  and  _475
REMARK  188  A    between atoms: _475  and  _476
REMARK  189  A    between atoms: _475  and  _478
REMARK  190  A    between atoms: _478  and  _479
REMARK  191  A    between atoms: _479  and  _480
REMARK  192  A    between atoms: _485  and  _487
REMARK  193  A    between atoms: _487  and  _488
REMARK  194  A    between atoms: _490  and  _492
REMARK  195  A    between atoms: _492  and  _493
REMARK  196  A    between atoms: _492  and  _495
REMARK  197  A    between atoms: _495  and  _496
REMARK  198  A    between atoms: _502  and  _504
REMARK  199  A    between atoms: _504  and  _505
REMARK  200  A    between atoms: _508  and  _510
REMARK  201  A    between atoms: _510  and  _511
REMARK  202  A    between atoms: _510  and  _513
REMARK  203  A    between atoms: _513  and  _514
REMARK  204  A    between atoms: _514  and  _515
REMARK  205  A    between atoms: _515  and  _516
REMARK  206  A    between atoms: _525  and  _527
REMARK  207  A    between atoms: _527  and  _528
REMARK  208  A    between atoms: _531  and  _533
REMARK  209  A    between atoms: _533  and  _534
REMARK  210  A    between atoms: _536  and  _538
REMARK  211  A    between atoms: _538  and  _539
REMARK  212  A    between atoms: _538  and  _541
REMARK  213  A    between atoms: _541  and  _542
REMARK  214  A    between atoms: _552  and  _554
REMARK  215  A    between atoms: _554  and  _555
REMARK  216  A    between atoms: _554  and  _557
REMARK  217  A    between atoms: _557  and  _558
REMARK  218  A    between atoms: _559  and  _561
REMARK  219  A    between atoms: _561  and  _562
REMARK  220  A    between atoms: _565  and  _567
REMARK  221  A    between atoms: _567  and  _568
REMARK  222  A    between atoms: _567  and  _570
REMARK  223  A    between atoms: _570  and  _571
REMARK  224  A    between atoms: _574  and  _576
REMARK  225  A    between atoms: _576  and  _577
REMARK  226  A    between atoms: _576  and  _579
REMARK  227  A    between atoms: _579  and  _580
REMARK  228  A    between atoms: _585  and  _586
REMARK  229  A    between atoms: _588  and  _590
REMARK  230  A    between atoms: _590  and  _591
REMARK  231  A    between atoms: _590  and  _593
REMARK  232  A    between atoms: _593  and  _594
REMARK  233  A    between atoms: _596  and  _598
REMARK  234  A    between atoms: _598  and  _599
REMARK  235  A    between atoms: _598  and  _601
REMARK  236  A    between atoms: _601  and  _602
REMARK  237  A    between atoms: _608  and  _610
REMARK  238  A    between atoms: _610  and  _611
REMARK  239  A    between atoms: _610  and  _613
REMARK  240  A    between atoms: _613  and  _614
REMARK  241  A    between atoms: _617  and  _619
REMARK  242  A    between atoms: _619  and  _620
REMARK  243  A    between atoms: _619  and  _622
REMARK  244  A    between atoms: _622  and  _623
REMARK  245  A    between atoms: _625  and  _627
REMARK  246  A    between atoms: _627  and  _628
REMARK  247  A    between atoms: _627  and  _630
REMARK  248  A    between atoms: _630  and  _631
REMARK  249  A    between atoms: _636  and  _638
REMARK  250  A    between atoms: _638  and  _639
REMARK  251  A    between atoms: _638  and  _641
REMARK  252  A    between atoms: _641  and  _642
REMARK  253  A    between atoms: _647  and  _649
REMARK  254  A    between atoms: _649  and  _650
REMARK  255  A    between atoms: _649  and  _652
REMARK  256  A    between atoms: _652  and  _653
REMARK  257  A    between atoms: _656  and  _658
REMARK  258  A    between atoms: _658  and  _659
REMARK  259  A    between atoms: _662  and  _664
REMARK  260  A    between atoms: _664  and  _665
REMARK  261  A    between atoms: _664  and  _667
REMARK  262  A    between atoms: _667  and  _668
REMARK  263  A    between atoms: _673  and  _674
REMARK  264  A    between atoms: _676  and  _678
REMARK  265  A    between atoms: _678  and  _679
REMARK  266  A    between atoms: _678  and  _681
REMARK  267  A    between atoms: _681  and  _682
REMARK  268  A    between atoms: _687  and  _688
REMARK  269  A    between atoms: _690  and  _692
REMARK  270  A    between atoms: _692  and  _693
REMARK  271  A    between atoms: _692  and  _695
REMARK  272  A    between atoms: _698  and  _700
REMARK  273  A    between atoms: _700  and  _701
REMARK  274  A    between atoms: _700  and  _703
REMARK  275  A    between atoms: _703  and  _704
REMARK  276  A    between atoms: _709  and  _711
REMARK  277  A    between atoms: _711  and  _712
REMARK  278  A    between atoms: _715  and  _717
REMARK  279  A    between atoms: _717  and  _718
REMARK  280  A    between atoms: _717  and  _720
REMARK  281  A    between atoms: _720  and  _721
REMARK  282  A    between atoms: _721  and  _722
REMARK  283  A    between atoms: _722  and  _723
REMARK  284  A    between atoms: _732  and  _734
REMARK  285  A    between atoms: _734  and  _735
REMARK  286  A    between atoms: _734  and  _737
REMARK  287  A    between atoms: _737  and  _738
REMARK  288  A    between atoms: _741  and  _743
REMARK  289  A    between atoms: _743  and  _744
REMARK  290  A    between atoms: _743  and  _746
REMARK  291  A    between atoms: _746  and  _747
REMARK  292  A    between atoms: _750  and  _752
REMARK  293  A    between atoms: _752  and  _753
REMARK  294  A    between atoms: _752  and  _755
REMARK  295  A    between atoms: _755  and  _756
REMARK  296  A    between atoms: _797  and  _800
REMARK                            x       y       z     vdW  Elec       q    Type
REMARK                         _______ _______ _______ _____ _____    ______ ____
ROOT
ATOM      1  O   UNL     1       6.291  20.844  21.382  0.00  0.00    +0.000 OA
ATOM      2  O   UNL     1       7.025  19.750  22.158  0.00  0.00    +0.000 OA
ENDROOT
BRANCH   2   3
ATOM      3  O   UNL     1       6.996  20.400  23.578  0.00  0.00    +0.000 OA
ATOM      4  O   UNL     1       5.733  20.455  24.350  0.00  0.00    +0.000 OA
ENDBRANCH   2   3
TORSDOF 1
REMARK  Name = ../refined-set-2016/1b1h/1b1h_pocket.pdb
REMARK  296 active torsions:
REMARK  status: ('A' for Active; 'I' for Inactive)
REMARK    1  A    between atoms: _1  and  _3
REMARK    2  A    between atoms: _3  and  _4
REMARK    3  A    between atoms: _3  and  _6
REMARK    4  A    between atoms: _6  and  _7
REMARK    5  A    between atoms: _12  and  _14
REMARK    6  A    between atoms: _14  and  _15
REMARK    7  A    between atoms: _17  and  _19
REMARK    8  A    between atoms: _19  and  _20
REMARK    9  A    between atoms: _19  and  _22
REMARK   10  A    between atoms: _22  and  _23
REMARK   11  A    between atoms: _25  and  _27
REMARK   12  A    between atoms: _27  and  _28
REMARK   13  A    between atoms: _27  and  _30
REMARK   14  A    between atoms: _30  and  _31
REMARK   15  A    between atoms: _31  and  _32
REMARK   16  A    between atoms: _37  and  _39
REMARK   17  A    between atoms: _39  and  _40
REMARK   18  A    between atoms: _39  and  _42
REMARK   19  A    between atoms: _42  and  _43
REMARK   20  A    between atoms: _46  and  _48
REMARK   21  A    between atoms: _48  and  _49
REMARK   22  A    between atoms: _48  and  _51
REMARK   23  A    between atoms: _51  and  _52
REMARK   24  A    between atoms: _52  and  _53
REMARK   25  A    between atoms: _56  and  _58
REMARK   26  A    between atoms: _58  and  _59
REMARK   27  A    between atoms: _61  and  _63
REMARK   28  A    between atoms: _63  and  _64
REMARK   29  A    between atoms: _63  and  _66
REMARK   30  A    between atoms: _70  and  _71
REMARK   31  A    between atoms: _76  and  _78
REMARK   32  A    between atoms: _78  and  _79
REMARK   33  A    between atoms: _78  and  _81
REMARK   34  A    between atoms: _81  and  _82
REMARK   35  A    between atoms: _82  and  _83
REMARK   36  A    between atoms: _86  and  _88
REMARK   37  A    between atoms: _88  and  _89
REMARK   38  A    between atoms: _88  and  _91
REMARK   39  A    between atoms: _91  and  _92
REMARK   40  A    between atoms: _94  and  _96
REMARK   41  A    between atoms: _96  and  _97
REMARK   42  A    between atoms: _96  and  _99
REMARK   43  A    between atoms: _99  and  _100
REMARK   44  A    between atoms: _105  and  _107
REMARK   45  A    between atoms: _107  and  _108
REMARK   46  A    between atoms: _107  and  _110
REMARK   47  A    between atoms: _110  and  _111
REMARK   48  A    between atoms: _111  and  _112
REMARK   49  A    between atoms: _112  and  _113
REMARK   50  A    between atoms: _123  and  _124
REMARK   51  A    between atoms: _129  and  _131
REMARK   52  A    between atoms: _131  and  _132
REMARK   53  A    between atoms: _131  and  _134
REMARK   54  A    between atoms: _134  and  _135
REMARK   55  A    between atoms: _140  and  _141
REMARK   56  A    between atoms: _143  and  _145
REMARK   57  A    between atoms: _145  and  _146
REMARK   58  A    between atoms: _145  and  _148
REMARK   59  A    between atoms: _148  and  _149
REMARK   60  A    between atoms: _154  and  _155
REMARK   61  A    between atoms: _157  and  _159
REMARK   62  A    between atoms: _159  and  _160
REMARK   63  A    between atoms: _159  and  _162
REMARK   64  A    between atoms: _165  and  _167
REMARK   65  A    between atoms: _167  and  _168
REMARK   66  A    between atoms: _167  and  _170
REMARK   67  A    between atoms: _170  and  _171
REMARK   68  A    between atoms: _177  and  _178
REMARK   69  A    between atoms: _183  and  _185
REMARK   70  A    between atoms: _185  and  _186
REMARK   71  A    between atoms: _185  and  _188
REMARK   72  A    between atoms: _188  and  _189
REMARK   73  A    between atoms: _191  and  _193
REMARK   74  A    between atoms: _193  and  _194
REMARK   75  A    between atoms: _193  and  _196
REMARK   76  A    between atoms: _196  and  _197
REMARK   77  A    between atoms: _197  and  _198
REMARK   78  A    between atoms: _201  and  _203
REMARK   79  A    between atoms: _203  and  _204
REMARK   80  A    between atoms: _203  and  _206
REMARK   81  A    between atoms: _206  and  _207
REMARK   82  A    between atoms: _212  and  _213
REMARK   83  A    between atoms: _215  and  _217
REMARK   84  A    between atoms: _217  and  _218
REMARK   85  A    between atoms: _217  and  _220
REMARK   86  A    between atoms: _220  and  _221
REMARK   87  A    between atoms: _226  and  _228
REMARK   88  A    between atoms: _228  and  _229
REMARK   89  A    between atoms: _228  and  _231
REMARK   90  A    between atoms: _231  and  _232
REMARK   91  A    between atoms: _237  and  _239
REMARK   92  A    between atoms: _239  and  _240
REMARK   93  A    between atoms: _239  and  _242
REMARK   94  A    between atoms: _242  and  _243
REMARK   95  A    between atoms: _243  and  _244
REMARK   96  A    between atoms: _246  and  _248
REMARK   97  A    between atoms: _248  and  _249
REMARK   98  A    between atoms: _248  and  _251
REMARK   99  A    between atoms: _251  and  _252
REMARK  100  A    between atoms: _257  and  _258
REMARK  101  A    between atoms: _260  and  _262
REMARK  102  A    between atoms: _262  and  _263
REMARK  103  A    between atoms: _262  and  _265
REMARK  104  A    between atoms: _265  and  _266
REMARK  105  A    between atoms: _269  and  _271
REMARK  106  A    between atoms: _271  and  _272
REMARK  107  A    between atoms: _271  and  _274
REMARK  108  A    between atoms: _274  and  _275
REMARK  109  A    between atoms: _275  and  _558
REMARK  110  A    between atoms: _276  and  _278
REMARK  111  A    between atoms: _278  and  _279
REMARK  112  A    between atoms: _278  and  _281
REMARK  113  A    between atoms: _281  and  _282
REMARK  114  A    between atoms: _285  and  _287
REMARK  115  A    between atoms: _287  and  _288
REMARK  116  A    between atoms: _287  and  _290
REMARK  117  A    between atoms: _290  and  _291
REMARK  118  A    between atoms: _296  and  _297
REMARK  119  A    between atoms: _299  and  _301
REMARK  120  A    between atoms: _301  and  _302
REMARK  121  A    between atoms: _301  and  _304
REMARK  122  A    between atoms: _304  and  _305
REMARK  123  A    between atoms: _310  and  _311
REMARK  124  A    between atoms: _313  and  _315
REMARK  125  A    between atoms: _315  and  _316
REMARK  126  A    between atoms: _315  and  _318
REMARK  127  A    between atoms: _318  and  _319
REMARK  128  A    between atoms: _319  and  _320
REMARK  129  A    between atoms: _323  and  _325
REMARK  130  A    between atoms: _325  and  _326
REMARK  131  A    between atoms: _325  and  _328
REMARK  132  A    between atoms: _328  and  _329
REMARK  133  A    between atoms: _334  and  _335
REMARK  134  A    between atoms: _337  and  _339
REMARK  135  A    between atoms: _339  and  _340
REMARK  136  A    between atoms: _339  and  _342
REMARK  137  A    between atoms: _342  and  _343
REMARK  138  A    between atoms: _348  and  _350
REMARK  139  A    between atoms: _350  and  _351
REMARK  140  A    between atoms: _350  and  _353
REMARK  141  A    between atoms: _353  and  _354
REMARK  142  A    between atoms: _357  and  _359
REMARK  143  A    between atoms: _359  and  _360
REMARK  144  A    between atoms: _359  and  _362
REMARK  145  A    between atoms: _362  and  _363
REMARK  146  A    between atoms: _368  and  _370
REMARK  147  A    between atoms: _370  and  _371
REMARK  148  A    between atoms: _370  and  _373
REMARK  149  A    between atoms: _373  and  _374
REMARK  150  A    between atoms: _384  and  _386
REMARK  151  A    between atoms: _386  and  _387
REMARK  152  A    between atoms: _386  and  _389
REMARK  153  A    between atoms: _389  and  _390
REMARK  154  A    between atoms: _390  and  _391
REMARK  155  A    between atoms: _391  and  _392
REMARK  156  A    between atoms: _392  and  _393
REMARK  157  A    between atoms: _397  and  _399
REMARK  158  A    between atoms: _399  and  _400
REMARK  159  A    between atoms: _399  and  _402
REMARK  160  A    between atoms: _402  and  _403
REMARK  161  A    between atoms: _406  and  _408
REMARK  162  A    between atoms: _408  and  _409
REMARK  163  A    between atoms: _408  and  _411
REMARK  164  A    between atoms: _411  and  _412
REMARK  165  A    between atoms: _418  and  _420
REMARK  166  A    between atoms: _420  and  _421
REMARK  167  A    between atoms: _420  and  _423
REMARK  168  A    between atoms: _423  and  _424
REMARK  169  A    between atoms: _427  and  _429
REMARK  170  A    between atoms: _429  and  _430
REMARK  171  A    between atoms: _429  and  _432
REMARK  172  A    between atoms: _432  and  _433
REMARK  173  A    between atoms: _436  and  _438
REMARK  174  A    between atoms: _438  and  _439
REMARK  175  A    between atoms: _438  and  _441
REMARK  176  A    between atoms: _441  and  _442
REMARK  177  A    between atoms: _445  and  _447
REMARK  178  A    between atoms: _447  and  _448
REMARK  179  A    between atoms: _447  and  _450
REMARK  180  A    between atoms: _450  and  _451
REMARK  181  A    between atoms: _451  and  _452
REMARK  182  A    between atoms: _452  and  _453
REMARK  183  A    between atoms: _462  and  _464
REMARK  184  A    between atoms: _464  and  _465
REMARK  185  A    between atoms: _464  and  _467
REMARK  186  A    between atoms: _467  and  _468
REMARK  187  A    between atoms: _473  and  _475
REMARK  188  A    between atoms: _475  and  _476
REMARK  189  A    between atoms: _475  and  _478
REMARK  190  A    between atoms: _478  and  _479
REMARK  191  A    between atoms: _479  and  _480
REMARK  192  A    between atoms: _485  and  _487
REMARK  193  A    between atoms: _487  and  _488
REMARK  194  A    between atoms: _490  and  _492
REMARK  195  A    between atoms: _492  and  _493
REMARK  196  A    between atoms: _492  and  _495
REMARK  197  A    between atoms: _495  and  _496
REMARK  198  A    between atoms: _502  and  _504
REMARK  199  A    between atoms: _504  and  _505
REMARK  200  A    between atoms: _508  and  _510
REMARK  201  A    between atoms: _510  and  _511
REMARK  202  A    between atoms: _510  and  _513
REMARK  203  A    between atoms: _513  and  _514
REMARK  204  A    between atoms: _514  and  _515
REMARK  205  A    between atoms: _515  and  _516
REMARK  206  A    between atoms: _525  and  _527
REMARK  207  A    between atoms: _527  and  _528
REMARK  208  A    between atoms: _531  and  _533
REMARK  209  A    between atoms: _533  and  _534
REMARK  210  A    between atoms: _536  and  _538
REMARK  211  A    between atoms: _538  and  _539
REMARK  212  A    between atoms: _538  and  _541
REMARK  213  A    between atoms: _541  and  _542
REMARK  214  A    between atoms: _552  and  _554
REMARK  215  A    between atoms: _554  and  _555
REMARK  216  A    between atoms: _554  and  _557
REMARK  217  A    between atoms: _557  and  _558
REMARK  218  A    between atoms: _559  and  _561
REMARK  219  A    between atoms: _561  and  _562
REMARK  220  A    between atoms: _565  and  _567
REMARK  221  A    between atoms: _567  and  _568
REMARK  222  A    between atoms: _567  and  _570
REMARK  223  A    between atoms: _570  and  _571
REMARK  224  A    between atoms: _574  and  _576
REMARK  225  A    between atoms: _576  and  _577
REMARK  226  A    between atoms: _576  and  _579
REMARK  227  A    between atoms: _579  and  _580
REMARK  228  A    between atoms: _585  and  _586
REMARK  229  A    between atoms: _588  and  _590
REMARK  230  A    between atoms: _590  and  _591
REMARK  231  A    between atoms: _590  and  _593
REMARK  232  A    between atoms: _593  and  _594
REMARK  233  A    between atoms: _596  and  _598
REMARK  234  A    between atoms: _598  and  _599
REMARK  235  A    between atoms: _598  and  _601
REMARK  236  A    between atoms: _601  and  _602
REMARK  237  A    between atoms: _608  and  _610
REMARK  238  A    between atoms: _610  and  _611
REMARK  239  A    between atoms: _610  and  _613
REMARK  240  A    between atoms: _613  and  _614
REMARK  241  A    between atoms: _617  and  _619
REMARK  242  A    between atoms: _619  and  _620
REMARK  243  A    between atoms: _619  and  _622
REMARK  244  A    between atoms: _622  and  _623
REMARK  245  A    between atoms: _625  and  _627
REMARK  246  A    between atoms: _627  and  _628
REMARK  247  A    between atoms: _627  and  _630
REMARK  248  A    between atoms: _630  and  _631
REMARK  249  A    between atoms: _636  and  _638
REMARK  250  A    between atoms: _638  and  _639
REMARK  251  A    between atoms: _638  and  _641
REMARK  252  A    between atoms: _641  and  _642
REMARK  253  A    between atoms: _647  and  _649
REMARK  254  A    between atoms: _649  and  _650
REMARK  255  A    between atoms: _649  and  _652
REMARK  256  A    between atoms: _652  and  _653
REMARK  257  A    between atoms: _656  and  _658
REMARK  258  A    between atoms: _658  and  _659
REMARK  259  A    between atoms: _662  and  _664
REMARK  260  A    between atoms: _664  and  _665
REMARK  261  A    between atoms: _664  and  _667
REMARK  262  A    between atoms: _667  and  _668
REMARK  263  A    between atoms: _673  and  _674
REMARK  264  A    between atoms: _676  and  _678
REMARK  265  A    between atoms: _678  and  _679
REMARK  266  A    between atoms: _678  and  _681
REMARK  267  A    between atoms: _681  and  _682
REMARK  268  A    between atoms: _687  and  _688
REMARK  269  A    between atoms: _690  and  _692
REMARK  270  A    between atoms: _692  and  _693
REMARK  271  A    between atoms: _692  and  _695
REMARK  272  A    between atoms: _698  and  _700
REMARK  273  A    between atoms: _700  and  _701
REMARK  274  A    between atoms: _700  and  _703
REMARK  275  A    between atoms: _703  and  _704
REMARK  276  A    between atoms: _709  and  _711
REMARK  277  A    between atoms: _711  and  _712
REMARK  278  A    between atoms: _715  and  _717
REMARK  279  A    between atoms: _717  and  _718
REMARK  280  A    between atoms: _717  and  _720
REMARK  281  A    between atoms: _720  and  _721
REMARK  282  A    between atoms: _721  and  _722
REMARK  283  A    between atoms: _722  and  _723
REMARK  284  A    between atoms: _732  and  _734
REMARK  285  A    between atoms: _734  and  _735
REMARK  286  A    between atoms: _734  and  _737
REMARK  287  A    between atoms: _737  and  _738
REMARK  288  A    between atoms: _741  and  _743
REMARK  289  A    between atoms: _743  and  _744
REMARK  290  A    between atoms: _743  and  _746
REMARK  291  A    between atoms: _746  and  _747
REMARK  292  A    between atoms: _750  and  _752
REMARK  293  A    between atoms: _752  and  _753
REMARK  294  A    between atoms: _752  and  _755
REMARK  295  A    between atoms: _755  and  _756
REMARK  296  A    between atoms: _797  and  _800
REMARK                            x       y       z     vdW  Elec       q    Type
REMARK                         _______ _______ _______ _____ _____    ______ ____
ROOT
ATOM      1  O   UNL     1       8.023  19.586  24.447  0.00  0.00    +0.000 OA
ATOM      2  O   UNL     1       8.402  20.381  25.562  0.00  0.00    +0.000 OA
ENDROOT
TORSDOF 0
REMARK  Name = ../refined-set-2016/1b1h/1b1h_pocket.pdb
REMARK  296 active torsions:
REMARK  status: ('A' for Active; 'I' for Inactive)
REMARK    1  A    between atoms: _1  and  _3
REMARK    2  A    between atoms: _3  and  _4
REMARK    3  A    between atoms: _3  and  _6
REMARK    4  A    between atoms: _6  and  _7
REMARK    5  A    between atoms: _12  and  _14
REMARK    6  A    between atoms: _14  and  _15
REMARK    7  A    between atoms: _17  and  _19
REMARK    8  A    between atoms: _19  and  _20
REMARK    9  A    between atoms: _19  and  _22
REMARK   10  A    between atoms: _22  and  _23
REMARK   11  A    between atoms: _25  and  _27
REMARK   12  A    between atoms: _27  and  _28
REMARK   13  A    between atoms: _27  and  _30
REMARK   14  A    between atoms: _30  and  _31
REMARK   15  A    between atoms: _31  and  _32
REMARK   16  A    between atoms: _37  and  _39
REMARK   17  A    between atoms: _39  and  _40
REMARK   18  A    between atoms: _39  and  _42
REMARK   19  A    between atoms: _42  and  _43
REMARK   20  A    between atoms: _46  and  _48
REMARK   21  A    between atoms: _48  and  _49
REMARK   22  A    between atoms: _48  and  _51
REMARK   23  A    between atoms: _51  and  _52
REMARK   24  A    between atoms: _52  and  _53
REMARK   25  A    between atoms: _56  and  _58
REMARK   26  A    between atoms: _58  and  _59
REMARK   27  A    between atoms: _61  and  _63
REMARK   28  A    between atoms: _63  and  _64
REMARK   29  A    between atoms: _63  and  _66
REMARK   30  A    between atoms: _70  and  _71
REMARK   31  A    between atoms: _76  and  _78
REMARK   32  A    between atoms: _78  and  _79
REMARK   33  A    between atoms: _78  and  _81
REMARK   34  A    between atoms: _81  and  _82
REMARK   35  A    between atoms: _82  and  _83
REMARK   36  A    between atoms: _86  and  _88
REMARK   37  A    between atoms: _88  and  _89
REMARK   38  A    between atoms: _88  and  _91
REMARK   39  A    between atoms: _91  and  _92
REMARK   40  A    between atoms: _94  and  _96
REMARK   41  A    between atoms: _96  and  _97
REMARK   42  A    between atoms: _96  and  _99
REMARK   43  A    between atoms: _99  and  _100
REMARK   44  A    between atoms: _105  and  _107
REMARK   45  A    between atoms: _107  and  _108
REMARK   46  A    between atoms: _107  and  _110
REMARK   47  A    between atoms: _110  and  _111
REMARK   48  A    between atoms: _111  and  _112
REMARK   49  A    between atoms: _112  and  _113
REMARK   50  A    between atoms: _123  and  _124
REMARK   51  A    between atoms: _129  and  _131
REMARK   52  A    between atoms: _131  and  _132
REMARK   53  A    between atoms: _131  and  _134
REMARK   54  A    between atoms: _134  and  _135
REMARK   55  A    between atoms: _140  and  _141
REMARK   56  A    between atoms: _143  and  _145
REMARK   57  A    between atoms: _145  and  _146
REMARK   58  A    between atoms: _145  and  _148
REMARK   59  A    between atoms: _148  and  _149
REMARK   60  A    between atoms: _154  and  _155
REMARK   61  A    between atoms: _157  and  _159
REMARK   62  A    between atoms: _159  and  _160
REMARK   63  A    between atoms: _159  and  _162
REMARK   64  A    between atoms: _165  and  _167
REMARK   65  A    between atoms: _167  and  _168
REMARK   66  A    between atoms: _167  and  _170
REMARK   67  A    between atoms: _170  and  _171
REMARK   68  A    between atoms: _177  and  _178
REMARK   69  A    between atoms: _183  and  _185
REMARK   70  A    between atoms: _185  and  _186
REMARK   71  A    between atoms: _185  and  _188
REMARK   72  A    between atoms: _188  and  _189
REMARK   73  A    between atoms: _191  and  _193
REMARK   74  A    between atoms: _193  and  _194
REMARK   75  A    between atoms: _193  and  _196
REMARK   76  A    between atoms: _196  and  _197
REMARK   77  A    between atoms: _197  and  _198
REMARK   78  A    between atoms: _201  and  _203
REMARK   79  A    between atoms: _203  and  _204
REMARK   80  A    between atoms: _203  and  _206
REMARK   81  A    between atoms: _206  and  _207
REMARK   82  A    between atoms: _212  and  _213
REMARK   83  A    between atoms: _215  and  _217
REMARK   84  A    between atoms: _217  and  _218
REMARK   85  A    between atoms: _217  and  _220
REMARK   86  A    between atoms: _220  and  _221
REMARK   87  A    between atoms: _226  and  _228
REMARK   88  A    between atoms: _228  and  _229
REMARK   89  A    between atoms: _228  and  _231
REMARK   90  A    between atoms: _231  and  _232
REMARK   91  A    between atoms: _237  and  _239
REMARK   92  A    between atoms: _239  and  _240
REMARK   93  A    between atoms: _239  and  _242
REMARK   94  A    between atoms: _242  and  _243
REMARK   95  A    between atoms: _243  and  _244
REMARK   96  A    between atoms: _246  and  _248
REMARK   97  A    between atoms: _248  and  _249
REMARK   98  A    between atoms: _248  and  _251
REMARK   99  A    between atoms: _251  and  _252
REMARK  100  A    between atoms: _257  and  _258
REMARK  101  A    between atoms: _260  and  _262
REMARK  102  A    between atoms: _262  and  _263
REMARK  103  A    between atoms: _262  and  _265
REMARK  104  A    between atoms: _265  and  _266
REMARK  105  A    between atoms: _269  and  _271
REMARK  106  A    between atoms: _271  and  _272
REMARK  107  A    between atoms: _271  and  _274
REMARK  108  A    between atoms: _274  and  _275
REMARK  109  A    between atoms: _275  and  _558
REMARK  110  A    between atoms: _276  and  _278
REMARK  111  A    between atoms: _278  and  _279
REMARK  112  A    between atoms: _278  and  _281
REMARK  113  A    between atoms: _281  and  _282
REMARK  114  A    between atoms: _285  and  _287
REMARK  115  A    between atoms: _287  and  _288
REMARK  116  A    between atoms: _287  and  _290
REMARK  117  A    between atoms: _290  and  _291
REMARK  118  A    between atoms: _296  and  _297
REMARK  119  A    between atoms: _299  and  _301
REMARK  120  A    between atoms: _301  and  _302
REMARK  121  A    between atoms: _301  and  _304
REMARK  122  A    between atoms: _304  and  _305
REMARK  123  A    between atoms: _310  and  _311
REMARK  124  A    between atoms: _313  and  _315
REMARK  125  A    between atoms: _315  and  _316
REMARK  126  A    between atoms: _315  and  _318
REMARK  127  A    between atoms: _318  and  _319
REMARK  128  A    between atoms: _319  and  _320
REMARK  129  A    between atoms: _323  and  _325
REMARK  130  A    between atoms: _325  and  _326
REMARK  131  A    between atoms: _325  and  _328
REMARK  132  A    between atoms: _328  and  _329
REMARK  133  A    between atoms: _334  and  _335
REMARK  134  A    between atoms: _337  and  _339
REMARK  135  A    between atoms: _339  and  _340
REMARK  136  A    between atoms: _339  and  _342
REMARK  137  A    between atoms: _342  and  _343
REMARK  138  A    between atoms: _348  and  _350
REMARK  139  A    between atoms: _350  and  _351
REMARK  140  A    between atoms: _350  and  _353
REMARK  141  A    between atoms: _353  and  _354
REMARK  142  A    between atoms: _357  and  _359
REMARK  143  A    between atoms: _359  and  _360
REMARK  144  A    between atoms: _359  and  _362
REMARK  145  A    between atoms: _362  and  _363
REMARK  146  A    between atoms: _368  and  _370
REMARK  147  A    between atoms: _370  and  _371
REMARK  148  A    between atoms: _370  and  _373
REMARK  149  A    between atoms: _373  and  _374
REMARK  150  A    between atoms: _384  and  _386
REMARK  151  A    between atoms: _386  and  _387
REMARK  152  A    between atoms: _386  and  _389
REMARK  153  A    between atoms: _389  and  _390
REMARK  154  A    between atoms: _390  and  _391
REMARK  155  A    between atoms: _391  and  _392
REMARK  156  A    between atoms: _392  and  _393
REMARK  157  A    between atoms: _397  and  _399
REMARK  158  A    between atoms: _399  and  _400
REMARK  159  A    between atoms: _399  and  _402
REMARK  160  A    between atoms: _402  and  _403
REMARK  161  A    between atoms: _406  and  _408
REMARK  162  A    between atoms: _408  and  _409
REMARK  163  A    between atoms: _408  and  _411
REMARK  164  A    between atoms: _411  and  _412
REMARK  165  A    between atoms: _418  and  _420
REMARK  166  A    between atoms: _420  and  _421
REMARK  167  A    between atoms: _420  and  _423
REMARK  168  A    between atoms: _423  and  _424
REMARK  169  A    between atoms: _427  and  _429
REMARK  170  A    between atoms: _429  and  _430
REMARK  171  A    between atoms: _429  and  _432
REMARK  172  A    between atoms: _432  and  _433
REMARK  173  A    between atoms: _436  and  _438
REMARK  174  A    between atoms: _438  and  _439
REMARK  175  A    between atoms: _438  and  _441
REMARK  176  A    between atoms: _441  and  _442
REMARK  177  A    between atoms: _445  and  _447
REMARK  178  A    between atoms: _447  and  _448
REMARK  179  A    between atoms: _447  and  _450
REMARK  180  A    between atoms: _450  and  _451
REMARK  181  A    between atoms: _451  and  _452
REMARK  182  A    between atoms: _452  and  _453
REMARK  183  A    between atoms: _462  and  _464
REMARK  184  A    between atoms: _464  and  _465
REMARK  185  A    between atoms: _464  and  _467
REMARK  186  A    between atoms: _467  and  _468
REMARK  187  A    between atoms: _473  and  _475
REMARK  188  A    between atoms: _475  and  _476
REMARK  189  A    between atoms: _475  and  _478
REMARK  190  A    between atoms: _478  and  _479
REMARK  191  A    between atoms: _479  and  _480
REMARK  192  A    between atoms: _485  and  _487
REMARK  193  A    between atoms: _487  and  _488
REMARK  194  A    between atoms: _490  and  _492
REMARK  195  A    between atoms: _492  and  _493
REMARK  196  A    between atoms: _492  and  _495
REMARK  197  A    between atoms: _495  and  _496
REMARK  198  A    between atoms: _502  and  _504
REMARK  199  A    between atoms: _504  and  _505
REMARK  200  A    between atoms: _508  and  _510
REMARK  201  A    between atoms: _510  and  _511
REMARK  202  A    between atoms: _510  and  _513
REMARK  203  A    between atoms: _513  and  _514
REMARK  204  A    between atoms: _514  and  _515
REMARK  205  A    between atoms: _515  and  _516
REMARK  206  A    between atoms: _525  and  _527
REMARK  207  A    between atoms: _527  and  _528
REMARK  208  A    between atoms: _531  and  _533
REMARK  209  A    between atoms: _533  and  _534
REMARK  210  A    between atoms: _536  and  _538
REMARK  211  A    between atoms: _538  and  _539
REMARK  212  A    between atoms: _538  and  _541
REMARK  213  A    between atoms: _541  and  _542
REMARK  214  A    between atoms: _552  and  _554
REMARK  215  A    between atoms: _554  and  _555
REMARK  216  A    between atoms: _554  and  _557
REMARK  217  A    between atoms: _557  and  _558
REMARK  218  A    between atoms: _559  and  _561
REMARK  219  A    between atoms: _561  and  _562
REMARK  220  A    between atoms: _565  and  _567
REMARK  221  A    between atoms: _567  and  _568
REMARK  222  A    between atoms: _567  and  _570
REMARK  223  A    between atoms: _570  and  _571
REMARK  224  A    between atoms: _574  and  _576
REMARK  225  A    between atoms: _576  and  _577
REMARK  226  A    between atoms: _576  and  _579
REMARK  227  A    between atoms: _579  and  _580
REMARK  228  A    between atoms: _585  and  _586
REMARK  229  A    between atoms: _588  and  _590
REMARK  230  A    between atoms: _590  and  _591
REMARK  231  A    between atoms: _590  and  _593
REMARK  232  A    between atoms: _593  and  _594
REMARK  233  A    between atoms: _596  and  _598
REMARK  234  A    between atoms: _598  and  _599
REMARK  235  A    between atoms: _598  and  _601
REMARK  236  A    between atoms: _601  and  _602
REMARK  237  A    between atoms: _608  and  _610
REMARK  238  A    between atoms: _610  and  _611
REMARK  239  A    between atoms: _610  and  _613
REMARK  240  A    between atoms: _613  and  _614
REMARK  241  A    between atoms: _617  and  _619
REMARK  242  A    between atoms: _619  and  _620
REMARK  243  A    between atoms: _619  and  _622
REMARK  244  A    between atoms: _622  and  _623
REMARK  245  A    between atoms: _625  and  _627
REMARK  246  A    between atoms: _627  and  _628
REMARK  247  A    between atoms: _627  and  _630
REMARK  248  A    between atoms: _630  and  _631
REMARK  249  A    between atoms: _636  and  _638
REMARK  250  A    between atoms: _638  and  _639
REMARK  251  A    between atoms: _638  and  _641
REMARK  252  A    between atoms: _641  and  _642
REMARK  253  A    between atoms: _647  and  _649
REMARK  254  A    between atoms: _649  and  _650
REMARK  255  A    between atoms: _649  and  _652
REMARK  256  A    between atoms: _652  and  _653
REMARK  257  A    between atoms: _656  and  _658
REMARK  258  A    between atoms: _658  and  _659
REMARK  259  A    between atoms: _662  and  _664
REMARK  260  A    between atoms: _664  and  _665
REMARK  261  A    between atoms: _664  and  _667
REMARK  262  A    between atoms: _667  and  _668
REMARK  263  A    between atoms: _673  and  _674
REMARK  264  A    between atoms: _676  and  _678
REMARK  265  A    between atoms: _678  and  _679
REMARK  266  A    between atoms: _678  and  _681
REMARK  267  A    between atoms: _681  and  _682
REMARK  268  A    between atoms: _687  and  _688
REMARK  269  A    between atoms: _690  and  _692
REMARK  270  A    between atoms: _692  and  _693
REMARK  271  A    between atoms: _692  and  _695
REMARK  272  A    between atoms: _698  and  _700
REMARK  273  A    between atoms: _700  and  _701
REMARK  274  A    between atoms: _700  and  _703
REMARK  275  A    between atoms: _703  and  _704
REMARK  276  A    between atoms: _709  and  _711
REMARK  277  A    between atoms: _711  and  _712
REMARK  278  A    between atoms: _715  and  _717
REMARK  279  A    between atoms: _717  and  _718
REMARK  280  A    between atoms: _717  and  _720
REMARK  281  A    between atoms: _720  and  _721
REMARK  282  A    between atoms: _721  and  _722
REMARK  283  A    between atoms: _722  and  _723
REMARK  284  A    between atoms: _732  and  _734
REMARK  285  A    between atoms: _734  and  _735
REMARK  286  A    between atoms: _734  and  _737
REMARK  287  A    between atoms: _737  and  _738
REMARK  288  A    between atoms: _741  and  _743
REMARK  289  A    between atoms: _743  and  _744
REMARK  290  A    between atoms: _743  and  _746
REMARK  291  A    between atoms: _746  and  _747
REMARK  292  A    between atoms: _750  and  _752
REMARK  293  A    between atoms: _752  and  _753
REMARK  294  A    between atoms: _752  and  _755
REMARK  295  A    between atoms: _755  and  _756
REMARK  296  A    between atoms: _797  and  _800
REMARK                            x       y       z     vdW  Elec       q    Type
REMARK                         _______ _______ _______ _____ _____    ______ ____
ROOT
ATOM      1  O   HOH     1       8.551  29.658  16.771  0.00  0.00    +0.000 OA
ENDROOT
TORSDOF 0
REMARK  Name = ../refined-set-2016/1b1h/1b1h_pocket.pdb
REMARK  296 active torsions:
REMARK  status: ('A' for Active; 'I' for Inactive)
REMARK    1  A    between atoms: _1  and  _3
REMARK    2  A    between atoms: _3  and  _4
REMARK    3  A    between atoms: _3  and  _6
REMARK    4  A    between atoms: _6  and  _7
REMARK    5  A    between atoms: _12  and  _14
REMARK    6  A    between atoms: _14  and  _15
REMARK    7  A    between atoms: _17  and  _19
REMARK    8  A    between atoms: _19  and  _20
REMARK    9  A    between atoms: _19  and  _22
REMARK   10  A    between atoms: _22  and  _23
REMARK   11  A    between atoms: _25  and  _27
REMARK   12  A    between atoms: _27  and  _28
REMARK   13  A    between atoms: _27  and  _30
REMARK   14  A    between atoms: _30  and  _31
REMARK   15  A    between atoms: _31  and  _32
REMARK   16  A    between atoms: _37  and  _39
REMARK   17  A    between atoms: _39  and  _40
REMARK   18  A    between atoms: _39  and  _42
REMARK   19  A    between atoms: _42  and  _43
REMARK   20  A    between atoms: _46  and  _48
REMARK   21  A    between atoms: _48  and  _49
REMARK   22  A    between atoms: _48  and  _51
REMARK   23  A    between atoms: _51  and  _52
REMARK   24  A    between atoms: _52  and  _53
REMARK   25  A    between atoms: _56  and  _58
REMARK   26  A    between atoms: _58  and  _59
REMARK   27  A    between atoms: _61  and  _63
REMARK   28  A    between atoms: _63  and  _64
REMARK   29  A    between atoms: _63  and  _66
REMARK   30  A    between atoms: _70  and  _71
REMARK   31  A    between atoms: _76  and  _78
REMARK   32  A    between atoms: _78  and  _79
REMARK   33  A    between atoms: _78  and  _81
REMARK   34  A    between atoms: _81  and  _82
REMARK   35  A    between atoms: _82  and  _83
REMARK   36  A    between atoms: _86  and  _88
REMARK   37  A    between atoms: _88  and  _89
REMARK   38  A    between atoms: _88  and  _91
REMARK   39  A    between atoms: _91  and  _92
REMARK   40  A    between atoms: _94  and  _96
REMARK   41  A    between atoms: _96  and  _97
REMARK   42  A    between atoms: _96  and  _99
REMARK   43  A    between atoms: _99  and  _100
REMARK   44  A    between atoms: _105  and  _107
REMARK   45  A    between atoms: _107  and  _108
REMARK   46  A    between atoms: _107  and  _110
REMARK   47  A    between atoms: _110  and  _111
REMARK   48  A    between atoms: _111  and  _112
REMARK   49  A    between atoms: _112  and  _113
REMARK   50  A    between atoms: _123  and  _124
REMARK   51  A    between atoms: _129  and  _131
REMARK   52  A    between atoms: _131  and  _132
REMARK   53  A    between atoms: _131  and  _134
REMARK   54  A    between atoms: _134  and  _135
REMARK   55  A    between atoms: _140  and  _141
REMARK   56  A    between atoms: _143  and  _145
REMARK   57  A    between atoms: _145  and  _146
REMARK   58  A    between atoms: _145  and  _148
REMARK   59  A    between atoms: _148  and  _149
REMARK   60  A    between atoms: _154  and  _155
REMARK   61  A    between atoms: _157  and  _159
REMARK   62  A    between atoms: _159  and  _160
REMARK   63  A    between atoms: _159  and  _162
REMARK   64  A    between atoms: _165  and  _167
REMARK   65  A    between atoms: _167  and  _168
REMARK   66  A    between atoms: _167  and  _170
REMARK   67  A    between atoms: _170  and  _171
REMARK   68  A    between atoms: _177  and  _178
REMARK   69  A    between atoms: _183  and  _185
REMARK   70  A    between atoms: _185  and  _186
REMARK   71  A    between atoms: _185  and  _188
REMARK   72  A    between atoms: _188  and  _189
REMARK   73  A    between atoms: _191  and  _193
REMARK   74  A    between atoms: _193  and  _194
REMARK   75  A    between atoms: _193  and  _196
REMARK   76  A    between atoms: _196  and  _197
REMARK   77  A    between atoms: _197  and  _198
REMARK   78  A    between atoms: _201  and  _203
REMARK   79  A    between atoms: _203  and  _204
REMARK   80  A    between atoms: _203  and  _206
REMARK   81  A    between atoms: _206  and  _207
REMARK   82  A    between atoms: _212  and  _213
REMARK   83  A    between atoms: _215  and  _217
REMARK   84  A    between atoms: _217  and  _218
REMARK   85  A    between atoms: _217  and  _220
REMARK   86  A    between atoms: _220  and  _221
REMARK   87  A    between atoms: _226  and  _228
REMARK   88  A    between atoms: _228  and  _229
REMARK   89  A    between atoms: _228  and  _231
REMARK   90  A    between atoms: _231  and  _232
REMARK   91  A    between atoms: _237  and  _239
REMARK   92  A    between atoms: _239  and  _240
REMARK   93  A    between atoms: _239  and  _242
REMARK   94  A    between atoms: _242  and  _243
REMARK   95  A    between atoms: _243  and  _244
REMARK   96  A    between atoms: _246  and  _248
REMARK   97  A    between atoms: _248  and  _249
REMARK   98  A    between atoms: _248  and  _251
REMARK   99  A    between atoms: _251  and  _252
REMARK  100  A    between atoms: _257  and  _258
REMARK  101  A    between atoms: _260  and  _262
REMARK  102  A    between atoms: _262  and  _263
REMARK  103  A    between atoms: _262  and  _265
REMARK  104  A    between atoms: _265  and  _266
REMARK  105  A    between atoms: _269  and  _271
REMARK  106  A    between atoms: _271  and  _272
REMARK  107  A    between atoms: _271  and  _274
REMARK  108  A    between atoms: _274  and  _275
REMARK  109  A    between atoms: _275  and  _558
REMARK  110  A    between atoms: _276  and  _278
REMARK  111  A    between atoms: _278  and  _279
REMARK  112  A    between atoms: _278  and  _281
REMARK  113  A    between atoms: _281  and  _282
REMARK  114  A    between atoms: _285  and  _287
REMARK  115  A    between atoms: _287  and  _288
REMARK  116  A    between atoms: _287  and  _290
REMARK  117  A    between atoms: _290  and  _291
REMARK  118  A    between atoms: _296  and  _297
REMARK  119  A    between atoms: _299  and  _301
REMARK  120  A    between atoms: _301  and  _302
REMARK  121  A    between atoms: _301  and  _304
REMARK  122  A    between atoms: _304  and  _305
REMARK  123  A    between atoms: _310  and  _311
REMARK  124  A    between atoms: _313  and  _315
REMARK  125  A    between atoms: _315  and  _316
REMARK  126  A    between atoms: _315  and  _318
REMARK  127  A    between atoms: _318  and  _319
REMARK  128  A    between atoms: _319  and  _320
REMARK  129  A    between atoms: _323  and  _325
REMARK  130  A    between atoms: _325  and  _326
REMARK  131  A    between atoms: _325  and  _328
REMARK  132  A    between atoms: _328  and  _329
REMARK  133  A    between atoms: _334  and  _335
REMARK  134  A    between atoms: _337  and  _339
REMARK  135  A    between atoms: _339  and  _340
REMARK  136  A    between atoms: _339  and  _342
REMARK  137  A    between atoms: _342  and  _343
REMARK  138  A    between atoms: _348  and  _350
REMARK  139  A    between atoms: _350  and  _351
REMARK  140  A    between atoms: _350  and  _353
REMARK  141  A    between atoms: _353  and  _354
REMARK  142  A    between atoms: _357  and  _359
REMARK  143  A    between atoms: _359  and  _360
REMARK  144  A    between atoms: _359  and  _362
REMARK  145  A    between atoms: _362  and  _363
REMARK  146  A    between atoms: _368  and  _370
REMARK  147  A    between atoms: _370  and  _371
REMARK  148  A    between atoms: _370  and  _373
REMARK  149  A    between atoms: _373  and  _374
REMARK  150  A    between atoms: _384  and  _386
REMARK  151  A    between atoms: _386  and  _387
REMARK  152  A    between atoms: _386  and  _389
REMARK  153  A    between atoms: _389  and  _390
REMARK  154  A    between atoms: _390  and  _391
REMARK  155  A    between atoms: _391  and  _392
REMARK  156  A    between atoms: _392  and  _393
REMARK  157  A    between atoms: _397  and  _399
REMARK  158  A    between atoms: _399  and  _400
REMARK  159  A    between atoms: _399  and  _402
REMARK  160  A    between atoms: _402  and  _403
REMARK  161  A    between atoms: _406  and  _408
REMARK  162  A    between atoms: _408  and  _409
REMARK  163  A    between atoms: _408  and  _411
REMARK  164  A    between atoms: _411  and  _412
REMARK  165  A    between atoms: _418  and  _420
REMARK  166  A    between atoms: _420  and  _421
REMARK  167  A    between atoms: _420  and  _423
REMARK  168  A    between atoms: _423  and  _424
REMARK  169  A    between atoms: _427  and  _429
REMARK  170  A    between atoms: _429  and  _430
REMARK  171  A    between atoms: _429  and  _432
REMARK  172  A    between atoms: _432  and  _433
REMARK  173  A    between atoms: _436  and  _438
REMARK  174  A    between atoms: _438  and  _439
REMARK  175  A    between atoms: _438  and  _441
REMARK  176  A    between atoms: _441  and  _442
REMARK  177  A    between atoms: _445  and  _447
REMARK  178  A    between atoms: _447  and  _448
REMARK  179  A    between atoms: _447  and  _450
REMARK  180  A    between atoms: _450  and  _451
REMARK  181  A    between atoms: _451  and  _452
REMARK  182  A    between atoms: _452  and  _453
REMARK  183  A    between atoms: _462  and  _464
REMARK  184  A    between atoms: _464  and  _465
REMARK  185  A    between atoms: _464  and  _467
REMARK  186  A    between atoms: _467  and  _468
REMARK  187  A    between atoms: _473  and  _475
REMARK  188  A    between atoms: _475  and  _476
REMARK  189  A    between atoms: _475  and  _478
REMARK  190  A    between atoms: _478  and  _479
REMARK  191  A    between atoms: _479  and  _480
REMARK  192  A    between atoms: _485  and  _487
REMARK  193  A    between atoms: _487  and  _488
REMARK  194  A    between atoms: _490  and  _492
REMARK  195  A    between atoms: _492  and  _493
REMARK  196  A    between atoms: _492  and  _495
REMARK  197  A    between atoms: _495  and  _496
REMARK  198  A    between atoms: _502  and  _504
REMARK  199  A    between atoms: _504  and  _505
REMARK  200  A    between atoms: _508  and  _510
REMARK  201  A    between atoms: _510  and  _511
REMARK  202  A    between atoms: _510  and  _513
REMARK  203  A    between atoms: _513  and  _514
REMARK  204  A    between atoms: _514  and  _515
REMARK  205  A    between atoms: _515  and  _516
REMARK  206  A    between atoms: _525  and  _527
REMARK  207  A    between atoms: _527  and  _528
REMARK  208  A    between atoms: _531  and  _533
REMARK  209  A    between atoms: _533  and  _534
REMARK  210  A    between atoms: _536  and  _538
REMARK  211  A    between atoms: _538  and  _539
REMARK  212  A    between atoms: _538  and  _541
REMARK  213  A    between atoms: _541  and  _542
REMARK  214  A    between atoms: _552  and  _554
REMARK  215  A    between atoms: _554  and  _555
REMARK  216  A    between atoms: _554  and  _557
REMARK  217  A    between atoms: _557  and  _558
REMARK  218  A    between atoms: _559  and  _561
REMARK  219  A    between atoms: _561  and  _562
REMARK  220  A    between atoms: _565  and  _567
REMARK  221  A    between atoms: _567  and  _568
REMARK  222  A    between atoms: _567  and  _570
REMARK  223  A    between atoms: _570  and  _571
REMARK  224  A    between atoms: _574  and  _576
REMARK  225  A    between atoms: _576  and  _577
REMARK  226  A    between atoms: _576  and  _579
REMARK  227  A    between atoms: _579  and  _580
REMARK  228  A    between atoms: _585  and  _586
REMARK  229  A    between atoms: _588  and  _590
REMARK  230  A    between atoms: _590  and  _591
REMARK  231  A    between atoms: _590  and  _593
REMARK  232  A    between atoms: _593  and  _594
REMARK  233  A    between atoms: _596  and  _598
REMARK  234  A    between atoms: _598  and  _599
REMARK  235  A    between atoms: _598  and  _601
REMARK  236  A    between atoms: _601  and  _602
REMARK  237  A    between atoms: _608  and  _610
REMARK  238  A    between atoms: _610  and  _611
REMARK  239  A    between atoms: _610  and  _613
REMARK  240  A    between atoms: _613  and  _614
REMARK  241  A    between atoms: _617  and  _619
REMARK  242  A    between atoms: _619  and  _620
REMARK  243  A    between atoms: _619  and  _622
REMARK  244  A    between atoms: _622  and  _623
REMARK  245  A    between atoms: _625  and  _627
REMARK  246  A    between atoms: _627  and  _628
REMARK  247  A    between atoms: _627  and  _630
REMARK  248  A    between atoms: _630  and  _631
REMARK  249  A    between atoms: _636  and  _638
REMARK  250  A    between atoms: _638  and  _639
REMARK  251  A    between atoms: _638  and  _641
REMARK  252  A    between atoms: _641  and  _642
REMARK  253  A    between atoms: _647  and  _649
REMARK  254  A    between atoms: _649  and  _650
REMARK  255  A    between atoms: _649  and  _652
REMARK  256  A    between atoms: _652  and  _653
REMARK  257  A    between atoms: _656  and  _658
REMARK  258  A    between atoms: _658  and  _659
REMARK  259  A    between atoms: _662  and  _664
REMARK  260  A    between atoms: _664  and  _665
REMARK  261  A    between atoms: _664  and  _667
REMARK  262  A    between atoms: _667  and  _668
REMARK  263  A    between atoms: _673  and  _674
REMARK  264  A    between atoms: _676  and  _678
REMARK  265  A    between atoms: _678  and  _679
REMARK  266  A    between atoms: _678  and  _681
REMARK  267  A    between atoms: _681  and  _682
REMARK  268  A    between atoms: _687  and  _688
REMARK  269  A    between atoms: _690  and  _692
REMARK  270  A    between atoms: _692  and  _693
REMARK  271  A    between atoms: _692  and  _695
REMARK  272  A    between atoms: _698  and  _700
REMARK  273  A    between atoms: _700  and  _701
REMARK  274  A    between atoms: _700  and  _703
REMARK  275  A    between atoms: _703  and  _704
REMARK  276  A    between atoms: _709  and  _711
REMARK  277  A    between atoms: _711  and  _712
REMARK  278  A    between atoms: _715  and  _717
REMARK  279  A    between atoms: _717  and  _718
REMARK  280  A    between atoms: _717  and  _720
REMARK  281  A    between atoms: _720  and  _721
REMARK  282  A    between atoms: _721  and  _722
REMARK  283  A    between atoms: _722  and  _723
REMARK  284  A    between atoms: _732  and  _734
REMARK  285  A    between atoms: _734  and  _735
REMARK  286  A    between atoms: _734  and  _737
REMARK  287  A    between atoms: _737  and  _738
REMARK  288  A    between atoms: _741  and  _743
REMARK  289  A    between atoms: _743  and  _744
REMARK  290  A    between atoms: _743  and  _746
REMARK  291  A    between atoms: _746  and  _747
REMARK  292  A    between atoms: _750  and  _752
REMARK  293  A    between atoms: _752  and  _753
REMARK  294  A    between atoms: _752  and  _755
REMARK  295  A    between atoms: _755  and  _756
REMARK  296  A    between atoms: _797  and  _800
REMARK                            x       y       z     vdW  Elec       q    Type
REMARK                         _______ _______ _______ _____ _____    ______ ____
ROOT
ATOM      1  O   HOH     1       9.980  30.977  17.603  0.00  0.00    +0.000 OA
ENDROOT
TORSDOF 0
REMARK  Name = ../refined-set-2016/1b1h/1b1h_pocket.pdb
REMARK  296 active torsions:
REMARK  status: ('A' for Active; 'I' for Inactive)
REMARK    1  A    between atoms: _1  and  _3
REMARK    2  A    between atoms: _3  and  _4
REMARK    3  A    between atoms: _3  and  _6
REMARK    4  A    between atoms: _6  and  _7
REMARK    5  A    between atoms: _12  and  _14
REMARK    6  A    between atoms: _14  and  _15
REMARK    7  A    between atoms: _17  and  _19
REMARK    8  A    between atoms: _19  and  _20
REMARK    9  A    between atoms: _19  and  _22
REMARK   10  A    between atoms: _22  and  _23
REMARK   11  A    between atoms: _25  and  _27
REMARK   12  A    between atoms: _27  and  _28
REMARK   13  A    between atoms: _27  and  _30
REMARK   14  A    between atoms: _30  and  _31
REMARK   15  A    between atoms: _31  and  _32
REMARK   16  A    between atoms: _37  and  _39
REMARK   17  A    between atoms: _39  and  _40
REMARK   18  A    between atoms: _39  and  _42
REMARK   19  A    between atoms: _42  and  _43
REMARK   20  A    between atoms: _46  and  _48
REMARK   21  A    between atoms: _48  and  _49
REMARK   22  A    between atoms: _48  and  _51
REMARK   23  A    between atoms: _51  and  _52
REMARK   24  A    between atoms: _52  and  _53
REMARK   25  A    between atoms: _56  and  _58
REMARK   26  A    between atoms: _58  and  _59
REMARK   27  A    between atoms: _61  and  _63
REMARK   28  A    between atoms: _63  and  _64
REMARK   29  A    between atoms: _63  and  _66
REMARK   30  A    between atoms: _70  and  _71
REMARK   31  A    between atoms: _76  and  _78
REMARK   32  A    between atoms: _78  and  _79
REMARK   33  A    between atoms: _78  and  _81
REMARK   34  A    between atoms: _81  and  _82
REMARK   35  A    between atoms: _82  and  _83
REMARK   36  A    between atoms: _86  and  _88
REMARK   37  A    between atoms: _88  and  _89
REMARK   38  A    between atoms: _88  and  _91
REMARK   39  A    between atoms: _91  and  _92
REMARK   40  A    between atoms: _94  and  _96
REMARK   41  A    between atoms: _96  and  _97
REMARK   42  A    between atoms: _96  and  _99
REMARK   43  A    between atoms: _99  and  _100
REMARK   44  A    between atoms: _105  and  _107
REMARK   45  A    between atoms: _107  and  _108
REMARK   46  A    between atoms: _107  and  _110
REMARK   47  A    between atoms: _110  and  _111
REMARK   48  A    between atoms: _111  and  _112
REMARK   49  A    between atoms: _112  and  _113
REMARK   50  A    between atoms: _123  and  _124
REMARK   51  A    between atoms: _129  and  _131
REMARK   52  A    between atoms: _131  and  _132
REMARK   53  A    between atoms: _131  and  _134
REMARK   54  A    between atoms: _134  and  _135
REMARK   55  A    between atoms: _140  and  _141
REMARK   56  A    between atoms: _143  and  _145
REMARK   57  A    between atoms: _145  and  _146
REMARK   58  A    between atoms: _145  and  _148
REMARK   59  A    between atoms: _148  and  _149
REMARK   60  A    between atoms: _154  and  _155
REMARK   61  A    between atoms: _157  and  _159
REMARK   62  A    between atoms: _159  and  _160
REMARK   63  A    between atoms: _159  and  _162
REMARK   64  A    between atoms: _165  and  _167
REMARK   65  A    between atoms: _167  and  _168
REMARK   66  A    between atoms: _167  and  _170
REMARK   67  A    between atoms: _170  and  _171
REMARK   68  A    between atoms: _177  and  _178
REMARK   69  A    between atoms: _183  and  _185
REMARK   70  A    between atoms: _185  and  _186
REMARK   71  A    between atoms: _185  and  _188
REMARK   72  A    between atoms: _188  and  _189
REMARK   73  A    between atoms: _191  and  _193
REMARK   74  A    between atoms: _193  and  _194
REMARK   75  A    between atoms: _193  and  _196
REMARK   76  A    between atoms: _196  and  _197
REMARK   77  A    between atoms: _197  and  _198
REMARK   78  A    between atoms: _201  and  _203
REMARK   79  A    between atoms: _203  and  _204
REMARK   80  A    between atoms: _203  and  _206
REMARK   81  A    between atoms: _206  and  _207
REMARK   82  A    between atoms: _212  and  _213
REMARK   83  A    between atoms: _215  and  _217
REMARK   84  A    between atoms: _217  and  _218
REMARK   85  A    between atoms: _217  and  _220
REMARK   86  A    between atoms: _220  and  _221
REMARK   87  A    between atoms: _226  and  _228
REMARK   88  A    between atoms: _228  and  _229
REMARK   89  A    between atoms: _228  and  _231
REMARK   90  A    between atoms: _231  and  _232
REMARK   91  A    between atoms: _237  and  _239
REMARK   92  A    between atoms: _239  and  _240
REMARK   93  A    between atoms: _239  and  _242
REMARK   94  A    between atoms: _242  and  _243
REMARK   95  A    between atoms: _243  and  _244
REMARK   96  A    between atoms: _246  and  _248
REMARK   97  A    between atoms: _248  and  _249
REMARK   98  A    between atoms: _248  and  _251
REMARK   99  A    between atoms: _251  and  _252
REMARK  100  A    between atoms: _257  and  _258
REMARK  101  A    between atoms: _260  and  _262
REMARK  102  A    between atoms: _262  and  _263
REMARK  103  A    between atoms: _262  and  _265
REMARK  104  A    between atoms: _265  and  _266
REMARK  105  A    between atoms: _269  and  _271
REMARK  106  A    between atoms: _271  and  _272
REMARK  107  A    between atoms: _271  and  _274
REMARK  108  A    between atoms: _274  and  _275
REMARK  109  A    between atoms: _275  and  _558
REMARK  110  A    between atoms: _276  and  _278
REMARK  111  A    between atoms: _278  and  _279
REMARK  112  A    between atoms: _278  and  _281
REMARK  113  A    between atoms: _281  and  _282
REMARK  114  A    between atoms: _285  and  _287
REMARK  115  A    between atoms: _287  and  _288
REMARK  116  A    between atoms: _287  and  _290
REMARK  117  A    between atoms: _290  and  _291
REMARK  118  A    between atoms: _296  and  _297
REMARK  119  A    between atoms: _299  and  _301
REMARK  120  A    between atoms: _301  and  _302
REMARK  121  A    between atoms: _301  and  _304
REMARK  122  A    between atoms: _304  and  _305
REMARK  123  A    between atoms: _310  and  _311
REMARK  124  A    between atoms: _313  and  _315
REMARK  125  A    between atoms: _315  and  _316
REMARK  126  A    between atoms: _315  and  _318
REMARK  127  A    between atoms: _318  and  _319
REMARK  128  A    between atoms: _319  and  _320
REMARK  129  A    between atoms: _323  and  _325
REMARK  130  A    between atoms: _325  and  _326
REMARK  131  A    between atoms: _325  and  _328
REMARK  132  A    between atoms: _328  and  _329
REMARK  133  A    between atoms: _334  and  _335
REMARK  134  A    between atoms: _337  and  _339
REMARK  135  A    between atoms: _339  and  _340
REMARK  136  A    between atoms: _339  and  _342
REMARK  137  A    between atoms: _342  and  _343
REMARK  138  A    between atoms: _348  and  _350
REMARK  139  A    between atoms: _350  and  _351
REMARK  140  A    between atoms: _350  and  _353
REMARK  141  A    between atoms: _353  and  _354
REMARK  142  A    between atoms: _357  and  _359
REMARK  143  A    between atoms: _359  and  _360
REMARK  144  A    between atoms: _359  and  _362
REMARK  145  A    between atoms: _362  and  _363
REMARK  146  A    between atoms: _368  and  _370
REMARK  147  A    between atoms: _370  and  _371
REMARK  148  A    between atoms: _370  and  _373
REMARK  149  A    between atoms: _373  and  _374
REMARK  150  A    between atoms: _384  and  _386
REMARK  151  A    between atoms: _386  and  _387
REMARK  152  A    between atoms: _386  and  _389
REMARK  153  A    between atoms: _389  and  _390
REMARK  154  A    between atoms: _390  and  _391
REMARK  155  A    between atoms: _391  and  _392
REMARK  156  A    between atoms: _392  and  _393
REMARK  157  A    between atoms: _397  and  _399
REMARK  158  A    between atoms: _399  and  _400
REMARK  159  A    between atoms: _399  and  _402
REMARK  160  A    between atoms: _402  and  _403
REMARK  161  A    between atoms: _406  and  _408
REMARK  162  A    between atoms: _408  and  _409
REMARK  163  A    between atoms: _408  and  _411
REMARK  164  A    between atoms: _411  and  _412
REMARK  165  A    between atoms: _418  and  _420
REMARK  166  A    between atoms: _420  and  _421
REMARK  167  A    between atoms: _420  and  _423
REMARK  168  A    between atoms: _423  and  _424
REMARK  169  A    between atoms: _427  and  _429
REMARK  170  A    between atoms: _429  and  _430
REMARK  171  A    between atoms: _429  and  _432
REMARK  172  A    between atoms: _432  and  _433
REMARK  173  A    between atoms: _436  and  _438
REMARK  174  A    between atoms: _438  and  _439
REMARK  175  A    between atoms: _438  and  _441
REMARK  176  A    between atoms: _441  and  _442
REMARK  177  A    between atoms: _445  and  _447
REMARK  178  A    between atoms: _447  and  _448
REMARK  179  A    between atoms: _447  and  _450
REMARK  180  A    between atoms: _450  and  _451
REMARK  181  A    between atoms: _451  and  _452
REMARK  182  A    between atoms: _452  and  _453
REMARK  183  A    between atoms: _462  and  _464
REMARK  184  A    between atoms: _464  and  _465
REMARK  185  A    between atoms: _464  and  _467
REMARK  186  A    between atoms: _467  and  _468
REMARK  187  A    between atoms: _473  and  _475
REMARK  188  A    between atoms: _475  and  _476
REMARK  189  A    between atoms: _475  and  _478
REMARK  190  A    between atoms: _478  and  _479
REMARK  191  A    between atoms: _479  and  _480
REMARK  192  A    between atoms: _485  and  _487
REMARK  193  A    between atoms: _487  and  _488
REMARK  194  A    between atoms: _490  and  _492
REMARK  195  A    between atoms: _492  and  _493
REMARK  196  A    between atoms: _492  and  _495
REMARK  197  A    between atoms: _495  and  _496
REMARK  198  A    between atoms: _502  and  _504
REMARK  199  A    between atoms: _504  and  _505
REMARK  200  A    between atoms: _508  and  _510
REMARK  201  A    between atoms: _510  and  _511
REMARK  202  A    between atoms: _510  and  _513
REMARK  203  A    between atoms: _513  and  _514
REMARK  204  A    between atoms: _514  and  _515
REMARK  205  A    between atoms: _515  and  _516
REMARK  206  A    between atoms: _525  and  _527
REMARK  207  A    between atoms: _527  and  _528
REMARK  208  A    between atoms: _531  and  _533
REMARK  209  A    between atoms: _533  and  _534
REMARK  210  A    between atoms: _536  and  _538
REMARK  211  A    between atoms: _538  and  _539
REMARK  212  A    between atoms: _538  and  _541
REMARK  213  A    between atoms: _541  and  _542
REMARK  214  A    between atoms: _552  and  _554
REMARK  215  A    between atoms: _554  and  _555
REMARK  216  A    between atoms: _554  and  _557
REMARK  217  A    between atoms: _557  and  _558
REMARK  218  A    between atoms: _559  and  _561
REMARK  219  A    between atoms: _561  and  _562
REMARK  220  A    between atoms: _565  and  _567
REMARK  221  A    between atoms: _567  and  _568
REMARK  222  A    between atoms: _567  and  _570
REMARK  223  A    between atoms: _570  and  _571
REMARK  224  A    between atoms: _574  and  _576
REMARK  225  A    between atoms: _576  and  _577
REMARK  226  A    between atoms: _576  and  _579
REMARK  227  A    between atoms: _579  and  _580
REMARK  228  A    between atoms: _585  and  _586
REMARK  229  A    between atoms: _588  and  _590
REMARK  230  A    between atoms: _590  and  _591
REMARK  231  A    between atoms: _590  and  _593
REMARK  232  A    between atoms: _593  and  _594
REMARK  233  A    between atoms: _596  and  _598
REMARK  234  A    between atoms: _598  and  _599
REMARK  235  A    between atoms: _598  and  _601
REMARK  236  A    between atoms: _601  and  _602
REMARK  237  A    between atoms: _608  and  _610
REMARK  238  A    between atoms: _610  and  _611
REMARK  239  A    between atoms: _610  and  _613
REMARK  240  A    between atoms: _613  and  _614
REMARK  241  A    between atoms: _617  and  _619
REMARK  242  A    between atoms: _619  and  _620
REMARK  243  A    between atoms: _619  and  _622
REMARK  244  A    between atoms: _622  and  _623
REMARK  245  A    between atoms: _625  and  _627
REMARK  246  A    between atoms: _627  and  _628
REMARK  247  A    between atoms: _627  and  _630
REMARK  248  A    between atoms: _630  and  _631
REMARK  249  A    between atoms: _636  and  _638
REMARK  250  A    between atoms: _638  and  _639
REMARK  251  A    between atoms: _638  and  _641
REMARK  252  A    between atoms: _641  and  _642
REMARK  253  A    between atoms: _647  and  _649
REMARK  254  A    between atoms: _649  and  _650
REMARK  255  A    between atoms: _649  and  _652
REMARK  256  A    between atoms: _652  and  _653
REMARK  257  A    between atoms: _656  and  _658
REMARK  258  A    between atoms: _658  and  _659
REMARK  259  A    between atoms: _662  and  _664
REMARK  260  A    between atoms: _664  and  _665
REMARK  261  A    between atoms: _664  and  _667
REMARK  262  A    between atoms: _667  and  _668
REMARK  263  A    between atoms: _673  and  _674
REMARK  264  A    between atoms: _676  and  _678
REMARK  265  A    between atoms: _678  and  _679
REMARK  266  A    between atoms: _678  and  _681
REMARK  267  A    between atoms: _681  and  _682
REMARK  268  A    between atoms: _687  and  _688
REMARK  269  A    between atoms: _690  and  _692
REMARK  270  A    between atoms: _692  and  _693
REMARK  271  A    between atoms: _692  and  _695
REMARK  272  A    between atoms: _698  and  _700
REMARK  273  A    between atoms: _700  and  _701
REMARK  274  A    between atoms: _700  and  _703
REMARK  275  A    between atoms: _703  and  _704
REMARK  276  A    between atoms: _709  and  _711
REMARK  277  A    between atoms: _711  and  _712
REMARK  278  A    between atoms: _715  and  _717
REMARK  279  A    between atoms: _717  and  _718
REMARK  280  A    between atoms: _717  and  _720
REMARK  281  A    between atoms: _720  and  _721
REMARK  282  A    between atoms: _721  and  _722
REMARK  283  A    between atoms: _722  and  _723
REMARK  284  A    between atoms: _732  and  _734
REMARK  285  A    between atoms: _734  and  _735
REMARK  286  A    between atoms: _734  and  _737
REMARK  287  A    between atoms: _737  and  _738
REMARK  288  A    between atoms: _741  and  _743
REMARK  289  A    between atoms: _743  and  _744
REMARK  290  A    between atoms: _743  and  _746
REMARK  291  A    between atoms: _746  and  _747
REMARK  292  A    between atoms: _750  and  _752
REMARK  293  A    between atoms: _752  and  _753
REMARK  294  A    between atoms: _752  and  _755
REMARK  295  A    between atoms: _755  and  _756
REMARK  296  A    between atoms: _797  and  _800
REMARK                            x       y       z     vdW  Elec       q    Type
REMARK                         _______ _______ _______ _____ _____    ______ ____
ROOT
ATOM      1  O   HOH     1      -3.929  23.043  15.051  0.00  0.00    +0.000 OA
ENDROOT
TORSDOF 0
